XFLR5 v6.06

 Calculated polar for: vsfoil

 1 1 Reynolds number fixed          Mach number fixed         

 xtrf =   1.000 (top)        1.000 (bottom)
 Mach =   0.000     Re =     0.450 e 6     Ncrit =   9.000

  alpha     CL        CD       CDp       Cm    Top Xtr Bot Xtr   Cpmin    Chinge    XCp    
 ------- -------- --------- --------- -------- ------- ------- -------- --------- ---------
  -8.000  -0.8571   0.01691   0.01020  -0.0055  1.0000  0.0298  -4.6050   0.0000   0.2361
  -7.500  -0.8109   0.01591   0.00907  -0.0039  1.0000  0.0332  -4.1723   0.0000   0.2382
  -7.000  -0.7683   0.01452   0.00767  -0.0018  1.0000  0.0380  -3.7716   0.0000   0.2412
  -6.500  -0.7244   0.01343   0.00655   0.0003  1.0000  0.0445  -3.4041   0.0000   0.2444
  -6.000  -0.6796   0.01252   0.00561   0.0023  1.0000  0.0539  -3.0410   0.0000   0.2478
  -5.500  -0.6351   0.01159   0.00476   0.0044  1.0000  0.0699  -2.7062   0.0000   0.2517
  -5.000  -0.5903   0.01076   0.00407   0.0064  1.0000  0.1005  -2.3849   0.0000   0.2559
  -4.500  -0.5454   0.00994   0.00353   0.0082  1.0000  0.1585  -2.0842   0.0000   0.2605
  -4.000  -0.4998   0.00917   0.00313   0.0097  1.0000  0.2396  -1.7993   0.0000   0.2653
  -3.500  -0.4530   0.00853   0.00285   0.0111  1.0000  0.3303  -1.5367   0.0000   0.2706
  -2.500  -0.3214   0.00741   0.00251   0.0059  0.9903  0.5301  -1.0205   0.0000   0.2649
  -2.000  -0.2458   0.00691   0.00237   0.0016  0.9808  0.6255  -0.8021   0.0000   0.2532
  -1.500  -0.1718   0.00646   0.00225  -0.0020  0.9696  0.7103  -0.6283   0.0000   0.2349
  -1.000  -0.1072   0.00610   0.00215  -0.0032  0.9512  0.7808  -0.5023   0.0000   0.2166
  -0.500  -0.0513   0.00587   0.00209  -0.0022  0.9233  0.8387  -0.4126   0.0000   0.2037
   0.000   0.0000   0.00579   0.00207   0.0000  0.8861  0.8861  -0.3454   0.0000  -0.1647
   0.500   0.0513   0.00587   0.00209   0.0022  0.8387  0.9233  -0.4126   0.0000   0.2037
   1.000   0.1072   0.00610   0.00215   0.0032  0.7808  0.9512  -0.5023   0.0000   0.2166
   1.500   0.1718   0.00646   0.00225   0.0020  0.7103  0.9696  -0.6283   0.0000   0.2349
   2.000   0.2458   0.00691   0.00237  -0.0016  0.6254  0.9808  -0.8021   0.0000   0.2532
   2.500   0.3214   0.00741   0.00250  -0.0059  0.5302  0.9904  -1.0205   0.0000   0.2649
   3.500   0.4529   0.00853   0.00285  -0.0110  0.3304  1.0000  -1.5365   0.0000   0.2705
   4.000   0.4998   0.00917   0.00312  -0.0097  0.2397  1.0000  -1.7992   0.0000   0.2653
   4.500   0.5454   0.00993   0.00353  -0.0082  0.1585  1.0000  -2.0840   0.0000   0.2605
   5.000   0.5903   0.01076   0.00407  -0.0063  0.1005  1.0000  -2.3847   0.0000   0.2559
   5.500   0.6351   0.01159   0.00476  -0.0044  0.0700  1.0000  -2.7060   0.0000   0.2517
   6.000   0.6795   0.01252   0.00561  -0.0023  0.0539  1.0000  -3.0408   0.0000   0.2478
   6.500   0.7243   0.01343   0.00655  -0.0003  0.0445  1.0000  -3.4040   0.0000   0.2444
   7.000   0.7683   0.01452   0.00767   0.0018  0.0380  1.0000  -3.7716   0.0000   0.2412
   7.500   0.8109   0.01591   0.00907   0.0039  0.0332  1.0000  -4.1723   0.0000   0.2382
   8.000   0.8572   0.01691   0.01020   0.0055  0.0298  1.0000  -4.6051   0.0000   0.2361


