XFLR5 v6.06

 Calculated polar for: vsfoil

 1 1 Reynolds number fixed          Mach number fixed         

 xtrf =   1.000 (top)        1.000 (bottom)
 Mach =   0.000     Re =     0.600 e 6     Ncrit =   9.000

  alpha     CL        CD       CDp       Cm    Top Xtr Bot Xtr   Cpmin    Chinge    XCp    
 ------- -------- --------- --------- -------- ------- ------- -------- --------- ---------
  -8.000  -0.8661   0.01516   0.00882  -0.0040  1.0000  0.0262  -4.7201   0.0000   0.2380
  -7.500  -0.8218   0.01397   0.00754  -0.0021  1.0000  0.0293  -4.2902   0.0000   0.2406
  -7.000  -0.7750   0.01324   0.00674  -0.0004  1.0000  0.0332  -3.8455   0.0000   0.2430
  -6.500  -0.7306   0.01228   0.00576   0.0016  1.0000  0.0389  -3.4636   0.0000   0.2462
  -6.000  -0.6854   0.01147   0.00495   0.0036  1.0000  0.0473  -3.0887   0.0000   0.2496
  -5.500  -0.6402   0.01073   0.00427   0.0056  1.0000  0.0613  -2.7399   0.0000   0.2535
  -5.000  -0.5948   0.01004   0.00369   0.0075  1.0000  0.0859  -2.4105   0.0000   0.2577
  -4.500  -0.5493   0.00936   0.00323   0.0092  1.0000  0.1309  -2.1026   0.0000   0.2623
  -4.000  -0.5031   0.00870   0.00287   0.0107  1.0000  0.1982  -1.8141   0.0000   0.2672
  -3.500  -0.4361   0.00798   0.00256   0.0078  0.9962  0.2931  -1.4988   0.0000   0.2639
  -3.000  -0.3630   0.00731   0.00229   0.0036  0.9896  0.3944  -1.2114   0.0000   0.2563
  -2.500  -0.2900   0.00673   0.00207  -0.0003  0.9818  0.4908  -0.9655   0.0000   0.2453
  -2.000  -0.2191   0.00621   0.00189  -0.0036  0.9715  0.5800  -0.7632   0.0000   0.2302
  -1.500  -0.1555   0.00578   0.00173  -0.0049  0.9551  0.6597  -0.6086   0.0000   0.2149
  -1.000  -0.1016   0.00544   0.00163  -0.0039  0.9278  0.7296  -0.4969   0.0000   0.2086
  -0.500  -0.0504   0.00522   0.00156  -0.0020  0.8921  0.7922  -0.4119   0.0000   0.2064
   0.000  -0.0000   0.00515   0.00153   0.0000  0.8467  0.8467  -0.3455   0.0000   0.5919
   0.500   0.0504   0.00522   0.00156   0.0020  0.7922  0.8921  -0.4119   0.0000   0.2064
   1.000   0.1016   0.00544   0.00163   0.0039  0.7296  0.9278  -0.4969   0.0000   0.2086
   1.500   0.1555   0.00578   0.00173   0.0049  0.6597  0.9551  -0.6086   0.0000   0.2149
   2.000   0.2191   0.00621   0.00189   0.0036  0.5800  0.9715  -0.7632   0.0000   0.2302
   2.500   0.2900   0.00673   0.00207   0.0003  0.4908  0.9818  -0.9655   0.0000   0.2453
   3.000   0.3630   0.00731   0.00229  -0.0036  0.3944  0.9896  -1.2114   0.0000   0.2563
   3.500   0.4361   0.00798   0.00256  -0.0078  0.2931  0.9962  -1.4989   0.0000   0.2639
   4.000   0.5030   0.00870   0.00287  -0.0107  0.1982  1.0000  -1.8139   0.0000   0.2672
   4.500   0.5492   0.00936   0.00323  -0.0092  0.1310  1.0000  -2.1024   0.0000   0.2623
   5.000   0.5947   0.01004   0.00369  -0.0074  0.0859  1.0000  -2.4102   0.0000   0.2577
   5.500   0.6401   0.01073   0.00427  -0.0055  0.0613  1.0000  -2.7397   0.0000   0.2535
   6.000   0.6853   0.01147   0.00495  -0.0036  0.0474  1.0000  -3.0885   0.0000   0.2496
   6.500   0.7305   0.01228   0.00576  -0.0016  0.0389  1.0000  -3.4634   0.0000   0.2462
   7.000   0.7750   0.01324   0.00674   0.0004  0.0332  1.0000  -3.8453   0.0000   0.2430
   7.500   0.8218   0.01397   0.00754   0.0021  0.0293  1.0000  -4.2901   0.0000   0.2405
   8.000   0.8661   0.01516   0.00882   0.0040  0.0262  1.0000  -4.7202   0.0000   0.2380


