XFLR5 v6.06

 Calculated polar for: vsfoil

 1 1 Reynolds number fixed          Mach number fixed         

 xtrf =   1.000 (top)        1.000 (bottom)
 Mach =   0.000     Re =     0.350 e 6     Ncrit =   9.000

  alpha     CL        CD       CDp       Cm    Top Xtr Bot Xtr   Cpmin    Chinge    XCp    
 ------- -------- --------- --------- -------- ------- ------- -------- --------- ---------
  -8.000  -0.8481   0.01900   0.01186  -0.0070  1.0000  0.0336  -4.4854   0.0000   0.2343
  -7.500  -0.8046   0.01744   0.01027  -0.0052  1.0000  0.0379  -4.0782   0.0000   0.2366
  -7.000  -0.7619   0.01586   0.00866  -0.0031  1.0000  0.0429  -3.6977   0.0000   0.2395
  -6.500  -0.7186   0.01459   0.00735  -0.0009  1.0000  0.0501  -3.3464   0.0000   0.2427
  -6.000  -0.6747   0.01352   0.00627   0.0012  1.0000  0.0609  -2.9964   0.0000   0.2462
  -5.500  -0.6308   0.01246   0.00527   0.0034  1.0000  0.0791  -2.6739   0.0000   0.2501
  -4.500  -0.5426   0.01049   0.00384   0.0073  1.0000  0.1871  -2.0684   0.0000   0.2589
  -3.000  -0.4040   0.00844   0.00294   0.0117  1.0000  0.4717  -1.2945   0.0000   0.2754
  -2.500  -0.3551   0.00804   0.00290   0.0127  1.0000  0.5634  -1.0818   0.0000   0.2826
  -2.000  -0.2787   0.00759   0.00284   0.0082  0.9908  0.6635  -0.8529   0.0000   0.2764
  -1.500  -0.2007   0.00722   0.00281   0.0038  0.9794  0.7515  -0.6633   0.0000   0.2659
  -1.000  -0.1237   0.00694   0.00278  -0.0000  0.9669  0.8223  -0.5178   0.0000   0.2468
  -0.500  -0.0585   0.00676   0.00275  -0.0009  0.9456  0.8752  -0.4179   0.0000   0.2320
   0.000  -0.0000   0.00670   0.00274   0.0000  0.9157  0.9157  -0.3453   0.0000   0.4794
   0.500   0.0585   0.00676   0.00275   0.0009  0.8752  0.9456  -0.4179   0.0000   0.2320
   1.000   0.1237   0.00694   0.00278   0.0000  0.8223  0.9669  -0.5178   0.0000   0.2468
   1.500   0.2007   0.00722   0.00281  -0.0038  0.7515  0.9794  -0.6633   0.0000   0.2659
   2.000   0.2787   0.00759   0.00284  -0.0082  0.6635  0.9908  -0.8529   0.0000   0.2764
   2.500   0.3550   0.00804   0.00290  -0.0127  0.5634  1.0000  -1.0817   0.0000   0.2825
   3.000   0.4040   0.00844   0.00294  -0.0117  0.4718  1.0000  -1.2944   0.0000   0.2754
   3.500   0.4513   0.00898   0.00311  -0.0104  0.3775  1.0000  -1.5281   0.0000   0.2691
   4.000   0.4975   0.00965   0.00340  -0.0089  0.2804  1.0000  -1.7868   0.0000   0.2637
   4.500   0.5425   0.01049   0.00384  -0.0073  0.1871  1.0000  -2.0683   0.0000   0.2589
   5.000   0.5865   0.01149   0.00446  -0.0054  0.1158  1.0000  -2.3613   0.0000   0.2543
   5.500   0.6308   0.01246   0.00527  -0.0034  0.0791  1.0000  -2.6737   0.0000   0.2501
   6.000   0.6747   0.01352   0.00627  -0.0012  0.0609  1.0000  -2.9962   0.0000   0.2462
   6.500   0.7186   0.01459   0.00735   0.0009  0.0501  1.0000  -3.3463   0.0000   0.2427
   7.000   0.7619   0.01586   0.00866   0.0031  0.0429  1.0000  -3.6977   0.0000   0.2395
   7.500   0.8046   0.01744   0.01027   0.0052  0.0379  1.0000  -4.0782   0.0000   0.2366
   8.000   0.8481   0.01900   0.01186   0.0070  0.0336  1.0000  -4.4855   0.0000   0.2343


