XFLR5 v6.06

 Calculated polar for: vsfoil

 1 1 Reynolds number fixed          Mach number fixed         

 xtrf =   1.000 (top)        1.000 (bottom)
 Mach =   0.000     Re =     0.550 e 6     Ncrit =   9.000

  alpha     CL        CD       CDp       Cm    Top Xtr Bot Xtr   Cpmin    Chinge    XCp    
 ------- -------- --------- --------- -------- ------- ------- -------- --------- ---------
  -8.000  -0.8625   0.01579   0.00932  -0.0045  1.0000  0.0272  -4.6804   0.0000   0.2373
  -7.500  -0.8191   0.01446   0.00794  -0.0026  1.0000  0.0304  -4.2572   0.0000   0.2399
  -7.000  -0.7743   0.01343   0.00684  -0.0006  1.0000  0.0348  -3.8348   0.0000   0.2427
  -6.500  -0.7291   0.01256   0.00592   0.0013  1.0000  0.0405  -3.4510   0.0000   0.2458
  -6.000  -0.6840   0.01171   0.00510   0.0033  1.0000  0.0495  -3.0773   0.0000   0.2492
  -5.500  -0.6384   0.01102   0.00442   0.0052  1.0000  0.0633  -2.7288   0.0000   0.2529
  -5.000  -0.5934   0.01025   0.00380   0.0071  1.0000  0.0901  -2.4028   0.0000   0.2572
  -4.500  -0.5480   0.00954   0.00332   0.0089  1.0000  0.1386  -2.0969   0.0000   0.2618
  -4.000  -0.5020   0.00884   0.00294   0.0104  1.0000  0.2100  -1.8096   0.0000   0.2666
  -3.500  -0.4469   0.00817   0.00266   0.0100  0.9984  0.3001  -1.5244   0.0000   0.2684
  -3.000  -0.3727   0.00751   0.00240   0.0056  0.9919  0.4043  -1.2312   0.0000   0.2613
  -2.500  -0.2984   0.00693   0.00220   0.0013  0.9843  0.5030  -0.9802   0.0000   0.2509
  -2.000  -0.2244   0.00641   0.00202  -0.0026  0.9755  0.5948  -0.7710   0.0000   0.2349
  -1.500  -0.1595   0.00596   0.00188  -0.0042  0.9594  0.6750  -0.6134   0.0000   0.2200
  -1.000  -0.1022   0.00561   0.00176  -0.0039  0.9354  0.7456  -0.4976   0.0000   0.2084
  -0.500  -0.0503   0.00538   0.00169  -0.0022  0.9023  0.8070  -0.4118   0.0000   0.2032
   0.000   0.0000   0.00530   0.00167  -0.0000  0.8593  0.8593  -0.3455   0.0000   0.4712
   0.500   0.0503   0.00538   0.00169   0.0022  0.8070  0.9023  -0.4118   0.0000   0.2032
   1.000   0.1022   0.00561   0.00176   0.0039  0.7456  0.9354  -0.4976   0.0000   0.2084
   1.500   0.1595   0.00596   0.00187   0.0042  0.6750  0.9594  -0.6134   0.0000   0.2200
   2.000   0.2244   0.00641   0.00202   0.0026  0.5948  0.9755  -0.7710   0.0000   0.2349
   2.500   0.2984   0.00693   0.00220  -0.0013  0.5030  0.9843  -0.9802   0.0000   0.2509
   3.000   0.3727   0.00751   0.00240  -0.0056  0.4043  0.9919  -1.2312   0.0000   0.2613
   3.500   0.4469   0.00817   0.00266  -0.0100  0.3001  0.9984  -1.5244   0.0000   0.2685
   4.000   0.5020   0.00883   0.00294  -0.0104  0.2101  1.0000  -1.8094   0.0000   0.2666
   4.500   0.5480   0.00954   0.00332  -0.0089  0.1386  1.0000  -2.0967   0.0000   0.2617
   5.000   0.5934   0.01025   0.00380  -0.0071  0.0902  1.0000  -2.4026   0.0000   0.2572
   5.500   0.6383   0.01102   0.00442  -0.0052  0.0633  1.0000  -2.7286   0.0000   0.2529
   6.000   0.6840   0.01171   0.00510  -0.0033  0.0495  1.0000  -3.0771   0.0000   0.2492
   6.500   0.7291   0.01256   0.00592  -0.0013  0.0405  1.0000  -3.4509   0.0000   0.2458
   7.000   0.7743   0.01343   0.00684   0.0006  0.0348  1.0000  -3.8346   0.0000   0.2427
   7.500   0.8191   0.01446   0.00793   0.0026  0.0304  1.0000  -4.2571   0.0000   0.2399
   8.000   0.8625   0.01579   0.00932   0.0045  0.0272  1.0000  -4.6804   0.0000   0.2373


