XFLR5 v6.06

 Calculated polar for: vsfoil

 1 1 Reynolds number fixed          Mach number fixed         

 xtrf =   1.000 (top)        1.000 (bottom)
 Mach =   0.000     Re =     0.050 e 6     Ncrit =   9.000

  alpha     CL        CD       CDp       Cm    Top Xtr Bot Xtr   Cpmin    Chinge    XCp    
 ------- -------- --------- --------- -------- ------- ------- -------- --------- ---------
  -8.000  -0.8023   0.05236   0.04372  -0.0156  1.0000  0.1367  -3.0515   0.0000   0.2243
  -7.500  -0.7810   0.04455   0.03513  -0.0132  1.0000  0.1412  -2.9992   0.0000   0.2270
  -7.000  -0.7492   0.03831   0.02807  -0.0106  1.0000  0.1521  -2.8975   0.0000   0.2300
  -6.500  -0.7084   0.03340   0.02258  -0.0082  1.0000  0.1712  -2.7387   0.0000   0.2328
  -6.000  -0.6633   0.02938   0.01842  -0.0061  1.0000  0.2031  -2.5349   0.0000   0.2356
  -5.500  -0.6186   0.02594   0.01516  -0.0035  1.0000  0.2597  -2.3319   0.0000   0.2394
  -5.000  -0.5794   0.02302   0.01290   0.0003  1.0000  0.3671  -2.1259   0.0000   0.2460
  -4.500  -0.5460   0.02110   0.01190   0.0066  1.0000  0.5200  -1.9125   0.0000   0.2579
  -4.000  -0.5113   0.02039   0.01174   0.0145  1.0000  0.6575  -1.6847   0.0000   0.2745
  -3.500  -0.4707   0.02057   0.01207   0.0229  1.0000  0.7705  -1.4529   0.0000   0.2951
  -3.000  -0.3861   0.02170   0.01285   0.0242  1.0000  0.8701  -1.1508   0.0000   0.3092
  -2.500  -0.1959   0.02200   0.01224   0.0014  1.0000  0.9569  -0.7369   0.0000   0.2520
  -2.000  -0.0704   0.02005   0.00987  -0.0159  1.0000  1.0000  -0.5294   0.0000   0.0147
  -1.500  -0.0465   0.01883   0.00859  -0.0143  1.0000  1.0000  -0.4678   0.0000  -0.0683
  -1.000  -0.0257   0.01803   0.00776  -0.0111  1.0000  1.0000  -0.4169   0.0000  -0.1923
  -0.500  -0.0111   0.01757   0.00732  -0.0061  1.0000  1.0000  -0.3771   0.0000  -0.3105
   0.000   0.0000   0.01742   0.00718  -0.0000  1.0000  1.0000  -0.3449   0.0000   0.4035
   0.500   0.0111   0.01757   0.00732   0.0061  1.0000  1.0000  -0.3771   0.0000  -0.3102
   1.000   0.0258   0.01803   0.00776   0.0111  1.0000  1.0000  -0.4169   0.0000  -0.1919
   1.500   0.0465   0.01883   0.00859   0.0143  1.0000  1.0000  -0.4679   0.0000  -0.0679
   2.000   0.0705   0.02005   0.00987   0.0159  1.0000  1.0000  -0.5295   0.0000   0.0151
   2.500   0.1959   0.02199   0.01223  -0.0013  0.9569  1.0000  -0.7368   0.0000   0.2520
   3.000   0.3860   0.02170   0.01285  -0.0242  0.8701  1.0000  -1.1507   0.0000   0.3091
   3.500   0.4706   0.02057   0.01207  -0.0229  0.7705  1.0000  -1.4528   0.0000   0.2951
   4.000   0.5113   0.02039   0.01174  -0.0145  0.6575  1.0000  -1.6846   0.0000   0.2745
   4.500   0.5460   0.02110   0.01190  -0.0066  0.5200  1.0000  -1.9125   0.0000   0.2579
   5.000   0.5793   0.02302   0.01290  -0.0003  0.3671  1.0000  -2.1258   0.0000   0.2460
   5.500   0.6186   0.02594   0.01516   0.0035  0.2597  1.0000  -2.3319   0.0000   0.2394
   6.000   0.6633   0.02938   0.01842   0.0061  0.2031  1.0000  -2.5349   0.0000   0.2356
   6.500   0.7084   0.03340   0.02257   0.0082  0.1712  1.0000  -2.7387   0.0000   0.2328
   7.000   0.7492   0.03831   0.02807   0.0106  0.1521  1.0000  -2.8975   0.0000   0.2300
   7.500   0.7810   0.04455   0.03513   0.0132  0.1411  1.0000  -2.9993   0.0000   0.2270
   8.000   0.8023   0.05237   0.04373   0.0155  0.1367  1.0000  -3.0515   0.0000   0.2243


