XFLR5 v6.06

 Calculated polar for: vsfoil

 1 1 Reynolds number fixed          Mach number fixed         

 xtrf =   1.000 (top)        1.000 (bottom)
 Mach =   0.000     Re =     0.400 e 6     Ncrit =   9.000

  alpha     CL        CD       CDp       Cm    Top Xtr Bot Xtr   Cpmin    Chinge    XCp    
 ------- -------- --------- --------- -------- ------- ------- -------- --------- ---------
  -8.000  -0.8524   0.01793   0.01106  -0.0063  1.0000  0.0316  -4.5406   0.0000   0.2351
  -7.500  -0.8095   0.01634   0.00939  -0.0043  1.0000  0.0353  -4.1413   0.0000   0.2377
  -7.000  -0.7651   0.01514   0.00809  -0.0024  1.0000  0.0400  -3.7418   0.0000   0.2404
  -6.500  -0.7208   0.01408   0.00699  -0.0004  1.0000  0.0467  -3.3743   0.0000   0.2435
  -6.000  -0.6777   0.01291   0.00585   0.0019  1.0000  0.0571  -3.0239   0.0000   0.2472
  -5.500  -0.6329   0.01202   0.00500   0.0039  1.0000  0.0738  -2.6910   0.0000   0.2510
  -5.000  -0.5886   0.01109   0.00424   0.0059  1.0000  0.1072  -2.3741   0.0000   0.2552
  -4.500  -0.5440   0.01019   0.00367   0.0077  1.0000  0.1715  -2.0767   0.0000   0.2597
  -4.000  -0.4987   0.00939   0.00325   0.0093  1.0000  0.2581  -1.7935   0.0000   0.2646
  -3.500  -0.4521   0.00873   0.00297   0.0107  1.0000  0.3521  -1.5326   0.0000   0.2699
  -3.000  -0.4042   0.00820   0.00281   0.0119  1.0000  0.4451  -1.2968   0.0000   0.2758
  -2.500  -0.3367   0.00771   0.00270   0.0090  0.9953  0.5458  -1.0475   0.0000   0.2733
  -2.000  -0.2596   0.00723   0.00259   0.0043  0.9856  0.6438  -0.8229   0.0000   0.2635
  -1.500  -0.1839   0.00680   0.00250   0.0004  0.9742  0.7298  -0.6429   0.0000   0.2488
  -1.000  -0.1138   0.00646   0.00242  -0.0020  0.9585  0.8003  -0.5085   0.0000   0.2293
  -0.500  -0.0535   0.00625   0.00237  -0.0019  0.9343  0.8566  -0.4143   0.0000   0.2120
   0.000  -0.0000   0.00617   0.00236   0.0000  0.9003  0.9003  -0.3454   0.0000   0.4868
   0.500   0.0535   0.00625   0.00237   0.0019  0.8566  0.9343  -0.4142   0.0000   0.2120
   1.000   0.1138   0.00646   0.00242   0.0020  0.8003  0.9585  -0.5085   0.0000   0.2293
   1.500   0.1839   0.00680   0.00250  -0.0004  0.7298  0.9742  -0.6429   0.0000   0.2488
   2.000   0.2596   0.00722   0.00259  -0.0043  0.6438  0.9856  -0.8229   0.0000   0.2635
   2.500   0.3367   0.00771   0.00270  -0.0090  0.5458  0.9953  -1.0475   0.0000   0.2733
   3.000   0.4041   0.00820   0.00281  -0.0118  0.4451  1.0000  -1.2967   0.0000   0.2758
   3.500   0.4520   0.00873   0.00296  -0.0107  0.3521  1.0000  -1.5324   0.0000   0.2698
   4.000   0.4986   0.00939   0.00325  -0.0093  0.2582  1.0000  -1.7933   0.0000   0.2646
   4.500   0.5440   0.01019   0.00367  -0.0077  0.1716  1.0000  -2.0766   0.0000   0.2597
   5.000   0.5885   0.01109   0.00424  -0.0059  0.1072  1.0000  -2.3740   0.0000   0.2552
   5.500   0.6328   0.01202   0.00499  -0.0039  0.0738  1.0000  -2.6908   0.0000   0.2509
   6.000   0.6777   0.01291   0.00585  -0.0019  0.0571  1.0000  -3.0238   0.0000   0.2472
   6.500   0.7208   0.01407   0.00699   0.0004  0.0467  1.0000  -3.3742   0.0000   0.2435
   7.000   0.7651   0.01514   0.00809   0.0024  0.0400  1.0000  -3.7418   0.0000   0.2404
   7.500   0.8095   0.01634   0.00939   0.0043  0.0353  1.0000  -4.1413   0.0000   0.2377
   8.000   0.8524   0.01793   0.01106   0.0063  0.0316  1.0000  -4.5407   0.0000   0.2351


