XFLR5 v6.06

 Calculated polar for: vsfoil

 1 1 Reynolds number fixed          Mach number fixed         

 xtrf =   1.000 (top)        1.000 (bottom)
 Mach =   0.000     Re =     0.250 e 6     Ncrit =   9.000

  alpha     CL        CD       CDp       Cm    Top Xtr Bot Xtr   Cpmin    Chinge    XCp    
 ------- -------- --------- --------- -------- ------- ------- -------- --------- ---------
  -8.000  -0.8412   0.02203   0.01440  -0.0086  1.0000  0.0405  -4.3152   0.0000   0.2324
  -7.500  -0.7965   0.02014   0.01239  -0.0069  1.0000  0.0451  -3.9406   0.0000   0.2344
  -7.000  -0.7532   0.01821   0.01044  -0.0049  1.0000  0.0513  -3.5795   0.0000   0.2370
  -6.500  -0.7101   0.01658   0.00877  -0.0027  1.0000  0.0598  -3.2527   0.0000   0.2401
  -6.000  -0.6669   0.01524   0.00739  -0.0005  1.0000  0.0725  -2.9257   0.0000   0.2437
  -5.500  -0.6247   0.01387   0.00612   0.0019  1.0000  0.0944  -2.6255   0.0000   0.2478
  -5.000  -0.5824   0.01256   0.00510   0.0041  1.0000  0.1408  -2.3292   0.0000   0.2522
  -4.500  -0.5397   0.01136   0.00437   0.0061  1.0000  0.2329  -2.0477   0.0000   0.2569
  -4.000  -0.4958   0.01043   0.00389   0.0080  1.0000  0.3405  -1.7718   0.0000   0.2620
  -3.500  -0.4508   0.00971   0.00358   0.0098  1.0000  0.4430  -1.5194   0.0000   0.2679
  -3.000  -0.4047   0.00916   0.00340   0.0115  1.0000  0.5400  -1.2899   0.0000   0.2750
  -2.500  -0.3577   0.00874   0.00336   0.0132  1.0000  0.6332  -1.0819   0.0000   0.2838
  -2.000  -0.3099   0.00847   0.00343   0.0149  1.0000  0.7225  -0.9002   0.0000   0.2953
  -1.500  -0.2577   0.00837   0.00364   0.0159  0.9979  0.8066  -0.7375   0.0000   0.3090
  -1.000  -0.1768   0.00840   0.00385   0.0115  0.9831  0.8772  -0.5710   0.0000   0.3124
  -0.500  -0.0907   0.00851   0.00401   0.0062  0.9686  0.9237  -0.4424   0.0000   0.3161
   0.000  -0.0000   0.00856   0.00406   0.0000  0.9515  0.9515  -0.3447   0.0000   0.6142
   0.500   0.0907   0.00851   0.00401  -0.0062  0.9236  0.9687  -0.4424   0.0000   0.3161
   1.000   0.1768   0.00840   0.00385  -0.0115  0.8772  0.9831  -0.5710   0.0000   0.3124
   1.500   0.2577   0.00837   0.00364  -0.0159  0.8066  0.9979  -0.7375   0.0000   0.3090
   2.000   0.3099   0.00847   0.00343  -0.0149  0.7225  1.0000  -0.9001   0.0000   0.2952
   2.500   0.3576   0.00874   0.00335  -0.0132  0.6333  1.0000  -1.0818   0.0000   0.2838
   3.000   0.4047   0.00916   0.00340  -0.0115  0.5401  1.0000  -1.2897   0.0000   0.2750
   3.500   0.4508   0.00971   0.00358  -0.0098  0.4430  1.0000  -1.5192   0.0000   0.2679
   4.000   0.4957   0.01043   0.00389  -0.0080  0.3406  1.0000  -1.7717   0.0000   0.2619
   4.500   0.5396   0.01136   0.00437  -0.0061  0.2330  1.0000  -2.0475   0.0000   0.2568
   5.000   0.5824   0.01256   0.00509  -0.0041  0.1408  1.0000  -2.3291   0.0000   0.2522
   5.500   0.6247   0.01387   0.00612  -0.0019  0.0944  1.0000  -2.6254   0.0000   0.2478
   6.000   0.6668   0.01524   0.00739   0.0005  0.0725  1.0000  -2.9256   0.0000   0.2437
   6.500   0.7101   0.01658   0.00877   0.0027  0.0598  1.0000  -3.2526   0.0000   0.2401
   7.000   0.7532   0.01821   0.01044   0.0049  0.0513  1.0000  -3.5795   0.0000   0.2370
   7.500   0.7966   0.02014   0.01239   0.0069  0.0451  1.0000  -3.9406   0.0000   0.2345
   8.000   0.8412   0.02203   0.01440   0.0086  0.0405  1.0000  -4.3153   0.0000   0.2324


