XFLR5 v6.06

 Calculated polar for: vsfoil

 1 1 Reynolds number fixed          Mach number fixed         

 xtrf =   1.000 (top)        1.000 (bottom)
 Mach =   0.000     Re =     0.200 e 6     Ncrit =   9.000

  alpha     CL        CD       CDp       Cm    Top Xtr Bot Xtr   Cpmin    Chinge    XCp    
 ------- -------- --------- --------- -------- ------- ------- -------- --------- ---------
  -8.000  -0.8383   0.02514   0.01710  -0.0094  1.0000  0.0462  -4.1823   0.0000   0.2315
  -7.500  -0.7939   0.02221   0.01411  -0.0078  1.0000  0.0512  -3.8411   0.0000   0.2333
  -7.000  -0.7494   0.01990   0.01169  -0.0059  1.0000  0.0580  -3.5060   0.0000   0.2357
  -6.500  -0.7057   0.01804   0.00981  -0.0038  1.0000  0.0676  -3.1911   0.0000   0.2385
  -6.000  -0.6625   0.01649   0.00822  -0.0016  1.0000  0.0822  -2.8767   0.0000   0.2420
  -5.500  -0.6212   0.01489   0.00678   0.0009  1.0000  0.1069  -2.5910   0.0000   0.2462
  -5.000  -0.5798   0.01341   0.00561   0.0033  1.0000  0.1612  -2.3061   0.0000   0.2508
  -4.500  -0.5385   0.01203   0.00481   0.0055  1.0000  0.2675  -2.0342   0.0000   0.2556
  -4.000  -0.4957   0.01105   0.00431   0.0076  1.0000  0.3820  -1.7630   0.0000   0.2611
  -3.500  -0.4515   0.01033   0.00400   0.0097  1.0000  0.4877  -1.5145   0.0000   0.2676
  -3.000  -0.4064   0.00977   0.00382   0.0118  1.0000  0.5861  -1.2881   0.0000   0.2756
  -2.500  -0.3607   0.00936   0.00379   0.0141  1.0000  0.6790  -1.0832   0.0000   0.2858
  -2.000  -0.3148   0.00914   0.00389   0.0166  1.0000  0.7669  -0.9046   0.0000   0.2997
  -1.500  -0.2708   0.00916   0.00416   0.0197  1.0000  0.8472  -0.7523   0.0000   0.3200
  -1.000  -0.2250   0.00947   0.00458   0.0225  1.0000  0.9192  -0.6236   0.0000   0.3476
  -0.500  -0.1189   0.00987   0.00493   0.0127  0.9888  0.9602  -0.4647   0.0000   0.3547
   0.000  -0.0000   0.01005   0.00507   0.0000  0.9785  0.9785  -0.3443   0.0000   0.4300
   0.500   0.1189   0.00987   0.00493  -0.0127  0.9602  0.9888  -0.4647   0.0000   0.3547
   1.000   0.2249   0.00947   0.00458  -0.0225  0.9191  1.0000  -0.6236   0.0000   0.3476
   1.500   0.2707   0.00916   0.00415  -0.0197  0.8471  1.0000  -0.7523   0.0000   0.3200
   2.000   0.3148   0.00914   0.00389  -0.0165  0.7669  1.0000  -0.9045   0.0000   0.2997
   2.500   0.3606   0.00936   0.00379  -0.0141  0.6790  1.0000  -1.0831   0.0000   0.2858
   3.000   0.4063   0.00977   0.00382  -0.0118  0.5861  1.0000  -1.2880   0.0000   0.2756
   3.500   0.4514   0.01033   0.00400  -0.0097  0.4878  1.0000  -1.5144   0.0000   0.2676
   4.000   0.4956   0.01104   0.00431  -0.0076  0.3821  1.0000  -1.7628   0.0000   0.2611
   4.500   0.5385   0.01203   0.00481  -0.0054  0.2676  1.0000  -2.0340   0.0000   0.2556
   5.500   0.6212   0.01489   0.00678  -0.0009  0.1069  1.0000  -2.5909   0.0000   0.2462
   6.000   0.6624   0.01649   0.00822   0.0016  0.0823  1.0000  -2.8766   0.0000   0.2420
   6.500   0.7057   0.01804   0.00981   0.0038  0.0676  1.0000  -3.1911   0.0000   0.2385
   7.000   0.7494   0.01990   0.01169   0.0059  0.0580  1.0000  -3.5060   0.0000   0.2357
   7.500   0.7939   0.02221   0.01411   0.0078  0.0512  1.0000  -3.8412   0.0000   0.2333
   8.000   0.8383   0.02514   0.01710   0.0094  0.0462  1.0000  -4.1823   0.0000   0.2315


