XFLR5 v6.06

 Calculated polar for: vsfoil

 1 1 Reynolds number fixed          Mach number fixed         

 xtrf =   1.000 (top)        1.000 (bottom)
 Mach =   0.000     Re =     0.150 e 6     Ncrit =   9.000

  alpha     CL        CD       CDp       Cm    Top Xtr Bot Xtr   Cpmin    Chinge    XCp    
 ------- -------- --------- --------- -------- ------- ------- -------- --------- ---------
  -8.000  -0.8368   0.02860   0.02016  -0.0103  1.0000  0.0551  -4.0294   0.0000   0.2304
  -7.500  -0.7926   0.02554   0.01693  -0.0087  1.0000  0.0613  -3.7071   0.0000   0.2322
  -7.000  -0.7471   0.02268   0.01390  -0.0070  1.0000  0.0691  -3.3976   0.0000   0.2342
  -6.500  -0.7017   0.02035   0.01149  -0.0051  1.0000  0.0804  -3.1067   0.0000   0.2367
  -6.000  -0.6584   0.01826   0.00946  -0.0029  1.0000  0.0972  -2.8116   0.0000   0.2399
  -5.500  -0.6165   0.01649   0.00782  -0.0005  1.0000  0.1272  -2.5420   0.0000   0.2440
  -5.000  -0.5774   0.01463   0.00644   0.0022  1.0000  0.1913  -2.2747   0.0000   0.2489
  -4.500  -0.5380   0.01307   0.00554   0.0048  1.0000  0.3149  -2.0165   0.0000   0.2544
  -4.000  -0.4966   0.01205   0.00503   0.0073  1.0000  0.4375  -1.7526   0.0000   0.2606
  -3.500  -0.4537   0.01131   0.00472   0.0100  1.0000  0.5453  -1.5090   0.0000   0.2683
  -3.000  -0.4100   0.01078   0.00456   0.0128  1.0000  0.6447  -1.2868   0.0000   0.2779
  -2.500  -0.3661   0.01045   0.00456   0.0160  1.0000  0.7369  -1.0859   0.0000   0.2906
  -2.000  -0.3231   0.01037   0.00472   0.0198  1.0000  0.8216  -0.9117   0.0000   0.3083
  -1.500  -0.2760   0.01062   0.00507   0.0230  1.0000  0.8968  -0.7539   0.0000   0.3306
  -1.000  -0.1983   0.01108   0.00547   0.0195  1.0000  0.9551  -0.5889   0.0000   0.3459
  -0.500  -0.0802   0.01141   0.00570   0.0069  1.0000  0.9839  -0.4300   0.0000   0.3336
   0.000   0.0000   0.01140   0.00566  -0.0000  1.0000  1.0000  -0.3441   0.0000   0.3953
   0.500   0.0802   0.01141   0.00570  -0.0069  0.9839  1.0000  -0.4300   0.0000   0.3336
   1.000   0.1983   0.01108   0.00547  -0.0195  0.9552  1.0000  -0.5889   0.0000   0.3459
   1.500   0.2759   0.01061   0.00507  -0.0230  0.8968  1.0000  -0.7539   0.0000   0.3306
   2.000   0.3231   0.01037   0.00472  -0.0198  0.8216  1.0000  -0.9117   0.0000   0.3083
   2.500   0.3661   0.01045   0.00456  -0.0160  0.7370  1.0000  -1.0858   0.0000   0.2906
   3.000   0.4099   0.01078   0.00456  -0.0128  0.6447  1.0000  -1.2867   0.0000   0.2778
   3.500   0.4537   0.01131   0.00472  -0.0100  0.5453  1.0000  -1.5089   0.0000   0.2682
   4.000   0.4965   0.01205   0.00503  -0.0073  0.4375  1.0000  -1.7525   0.0000   0.2606
   4.500   0.5380   0.01307   0.00554  -0.0048  0.3150  1.0000  -2.0164   0.0000   0.2544
   5.000   0.5773   0.01463   0.00644  -0.0022  0.1913  1.0000  -2.2746   0.0000   0.2489
   5.500   0.6165   0.01649   0.00782   0.0005  0.1272  1.0000  -2.5419   0.0000   0.2440
   6.000   0.6584   0.01826   0.00946   0.0029  0.0972  1.0000  -2.8115   0.0000   0.2399
   6.500   0.7017   0.02035   0.01149   0.0051  0.0804  1.0000  -3.1066   0.0000   0.2367
   7.000   0.7471   0.02268   0.01390   0.0070  0.0691  1.0000  -3.3976   0.0000   0.2342
   7.500   0.7926   0.02554   0.01693   0.0087  0.0613  1.0000  -3.7071   0.0000   0.2322
   8.000   0.8369   0.02860   0.02016   0.0103  0.0551  1.0000  -4.0294   0.0000   0.2304


