XFLR5 v6.06

 Calculated polar for: vsfoil

 1 1 Reynolds number fixed          Mach number fixed         

 xtrf =   1.000 (top)        1.000 (bottom)
 Mach =   0.000     Re =     0.500 e 6     Ncrit =   9.000

  alpha     CL        CD       CDp       Cm    Top Xtr Bot Xtr   Cpmin    Chinge    XCp    
 ------- -------- --------- --------- -------- ------- ------- -------- --------- ---------
  -8.000  -0.8596   0.01634   0.00972  -0.0050  1.0000  0.0283  -4.6485   0.0000   0.2367
  -7.500  -0.8156   0.01508   0.00843  -0.0032  1.0000  0.0318  -4.2185   0.0000   0.2392
  -7.000  -0.7717   0.01390   0.00721  -0.0012  1.0000  0.0363  -3.8053   0.0000   0.2420
  -6.500  -0.7273   0.01291   0.00617   0.0009  1.0000  0.0424  -3.4314   0.0000   0.2452
  -6.000  -0.6821   0.01206   0.00532   0.0028  1.0000  0.0515  -3.0609   0.0000   0.2486
  -5.500  -0.6370   0.01126   0.00456   0.0048  1.0000  0.0665  -2.7193   0.0000   0.2524
  -5.000  -0.5918   0.01050   0.00393   0.0068  1.0000  0.0947  -2.3941   0.0000   0.2566
  -4.500  -0.5468   0.00972   0.00342   0.0085  1.0000  0.1478  -2.0909   0.0000   0.2612
  -4.000  -0.5010   0.00899   0.00303   0.0101  1.0000  0.2235  -1.8047   0.0000   0.2660
  -3.500  -0.4539   0.00836   0.00276   0.0114  1.0000  0.3113  -1.5406   0.0000   0.2712
  -3.000  -0.3834   0.00773   0.00254   0.0077  0.9952  0.4155  -1.2537   0.0000   0.2665
  -2.500  -0.3078   0.00715   0.00235   0.0032  0.9876  0.5166  -0.9966   0.0000   0.2568
  -2.000  -0.2330   0.00664   0.00218  -0.0009  0.9784  0.6100  -0.7835   0.0000   0.2425
  -1.500  -0.1631   0.00618   0.00204  -0.0037  0.9657  0.6924  -0.6177   0.0000   0.2239
  -1.000  -0.1033   0.00582   0.00193  -0.0038  0.9440  0.7625  -0.4986   0.0000   0.2093
  -0.500  -0.0504   0.00559   0.00187  -0.0023  0.9126  0.8224  -0.4120   0.0000   0.2017
   0.000   0.0000   0.00551   0.00185  -0.0000  0.8725  0.8725  -0.3455   0.0000   0.4860
   0.500   0.0504   0.00559   0.00187   0.0023  0.8224  0.9126  -0.4120   0.0000   0.2017
   1.000   0.1033   0.00582   0.00193   0.0038  0.7625  0.9440  -0.4986   0.0000   0.2093
   1.500   0.1630   0.00618   0.00204   0.0037  0.6924  0.9657  -0.6177   0.0000   0.2239
   2.000   0.2330   0.00664   0.00218   0.0009  0.6100  0.9785  -0.7835   0.0000   0.2425
   2.500   0.3078   0.00715   0.00235  -0.0032  0.5166  0.9876  -0.9966   0.0000   0.2568
   3.000   0.3834   0.00773   0.00254  -0.0077  0.4155  0.9953  -1.2537   0.0000   0.2665
   3.500   0.4539   0.00836   0.00276  -0.0114  0.3114  1.0000  -1.5404   0.0000   0.2712
   4.000   0.5009   0.00899   0.00302  -0.0101  0.2236  1.0000  -1.8045   0.0000   0.2660
   4.500   0.5467   0.00972   0.00342  -0.0085  0.1478  1.0000  -2.0907   0.0000   0.2611
   5.000   0.5918   0.01050   0.00393  -0.0067  0.0947  1.0000  -2.3939   0.0000   0.2566
   5.500   0.6369   0.01126   0.00456  -0.0048  0.0665  1.0000  -2.7191   0.0000   0.2524
   6.000   0.6821   0.01206   0.00532  -0.0028  0.0515  1.0000  -3.0607   0.0000   0.2486
   6.500   0.7272   0.01291   0.00617  -0.0009  0.0424  1.0000  -3.4312   0.0000   0.2452
   7.000   0.7717   0.01390   0.00721   0.0012  0.0363  1.0000  -3.8052   0.0000   0.2420
   7.500   0.8156   0.01508   0.00843   0.0032  0.0318  1.0000  -4.2185   0.0000   0.2392
   8.000   0.8596   0.01634   0.00972   0.0050  0.0283  1.0000  -4.6486   0.0000   0.2367


