XFLR5 v6.06

 Calculated polar for: vsfoil

 1 1 Reynolds number fixed          Mach number fixed         

 xtrf =   1.000 (top)        1.000 (bottom)
 Mach =   0.000     Re =     0.300 e 6     Ncrit =   9.000

  alpha     CL        CD       CDp       Cm    Top Xtr Bot Xtr   Cpmin    Chinge    XCp    
 ------- -------- --------- --------- -------- ------- ------- -------- --------- ---------
  -8.000  -0.8445   0.02036   0.01308  -0.0079  1.0000  0.0366  -4.3960   0.0000   0.2332
  -7.500  -0.8012   0.01839   0.01096  -0.0059  1.0000  0.0408  -4.0281   0.0000   0.2357
  -7.000  -0.7561   0.01713   0.00959  -0.0041  1.0000  0.0464  -3.6390   0.0000   0.2381
  -6.500  -0.7136   0.01561   0.00806  -0.0019  1.0000  0.0541  -3.3005   0.0000   0.2414
  -6.000  -0.6716   0.01419   0.00669   0.0005  1.0000  0.0658  -2.9688   0.0000   0.2452
  -5.500  -0.6281   0.01307   0.00563   0.0027  1.0000  0.0855  -2.6531   0.0000   0.2491
  -5.000  -0.5845   0.01196   0.00473   0.0048  1.0000  0.1266  -2.3468   0.0000   0.2534
  -4.500  -0.5411   0.01087   0.00406   0.0067  1.0000  0.2073  -2.0588   0.0000   0.2579
  -4.000  -0.4966   0.00998   0.00361   0.0085  1.0000  0.3074  -1.7799   0.0000   0.2629
  -3.500  -0.4509   0.00929   0.00331   0.0101  1.0000  0.4070  -1.5239   0.0000   0.2685
  -3.000  -0.4041   0.00875   0.00313   0.0116  1.0000  0.5028  -1.2921   0.0000   0.2751
  -2.500  -0.3560   0.00833   0.00308   0.0129  1.0000  0.5953  -1.0815   0.0000   0.2829
  -2.000  -0.3040   0.00803   0.00314   0.0135  0.9989  0.6861  -0.8928   0.0000   0.2913
  -1.500  -0.2231   0.00775   0.00320   0.0085  0.9874  0.7768  -0.6921   0.0000   0.2850
  -1.000  -0.1460   0.00757   0.00325   0.0047  0.9728  0.8470  -0.5399   0.0000   0.2795
  -0.500  -0.0693   0.00749   0.00328   0.0014  0.9569  0.8969  -0.4258   0.0000   0.2679
   0.000  -0.0000   0.00746   0.00328   0.0000  0.9324  0.9324  -0.3451   0.0000   0.5325
   0.500   0.0693   0.00749   0.00328  -0.0014  0.8969  0.9569  -0.4258   0.0000   0.2679
   1.000   0.1460   0.00757   0.00325  -0.0047  0.8470  0.9728  -0.5398   0.0000   0.2795
   1.500   0.2231   0.00774   0.00320  -0.0085  0.7768  0.9874  -0.6921   0.0000   0.2850
   2.000   0.3040   0.00803   0.00314  -0.0135  0.6860  0.9989  -0.8928   0.0000   0.2913
   2.500   0.3559   0.00833   0.00308  -0.0128  0.5954  1.0000  -1.0814   0.0000   0.2829
   3.000   0.4040   0.00874   0.00313  -0.0115  0.5028  1.0000  -1.2919   0.0000   0.2750
   3.500   0.4508   0.00929   0.00331  -0.0101  0.4071  1.0000  -1.5238   0.0000   0.2685
   4.000   0.4965   0.00998   0.00361  -0.0084  0.3074  1.0000  -1.7798   0.0000   0.2629
   4.500   0.5410   0.01087   0.00406  -0.0067  0.2073  1.0000  -2.0587   0.0000   0.2579
   5.000   0.5845   0.01196   0.00473  -0.0048  0.1267  1.0000  -2.3467   0.0000   0.2534
   5.500   0.6281   0.01306   0.00563  -0.0027  0.0855  1.0000  -2.6529   0.0000   0.2491
   6.000   0.6716   0.01419   0.00669  -0.0005  0.0658  1.0000  -2.9687   0.0000   0.2452
   6.500   0.7135   0.01561   0.00806   0.0019  0.0541  1.0000  -3.3005   0.0000   0.2414
   7.000   0.7561   0.01713   0.00959   0.0041  0.0464  1.0000  -3.6389   0.0000   0.2381
   7.500   0.8013   0.01839   0.01096   0.0059  0.0408  1.0000  -4.0281   0.0000   0.2357
   8.000   0.8445   0.02036   0.01308   0.0079  0.0366  1.0000  -4.3961   0.0000   0.2332


