XFLR5 v6.06

 Calculated polar for: vsfoil

 1 1 Reynolds number fixed          Mach number fixed         

 xtrf =   1.000 (top)        1.000 (bottom)
 Mach =   0.000     Re =     0.100 e 6     Ncrit =   9.000

  alpha     CL        CD       CDp       Cm    Top Xtr Bot Xtr   Cpmin    Chinge    XCp    
 ------- -------- --------- --------- -------- ------- ------- -------- --------- ---------
  -8.000  -0.8321   0.03544   0.02682  -0.0125  1.0000  0.0745  -3.7141   0.0000   0.2280
  -7.500  -0.7918   0.03112   0.02200  -0.0103  1.0000  0.0808  -3.4888   0.0000   0.2304
  -7.000  -0.7479   0.02725   0.01775  -0.0083  1.0000  0.0897  -3.2409   0.0000   0.2326
  -6.500  -0.7015   0.02422   0.01437  -0.0064  1.0000  0.1039  -2.9941   0.0000   0.2350
  -6.000  -0.6557   0.02156   0.01178  -0.0045  1.0000  0.1260  -2.7189   0.0000   0.2376
  -5.500  -0.6131   0.01915   0.00970  -0.0022  1.0000  0.1636  -2.4696   0.0000   0.2413
  -5.000  -0.5747   0.01687   0.00802   0.0008  1.0000  0.2455  -2.2255   0.0000   0.2465
  -4.500  -0.5386   0.01505   0.00701   0.0042  1.0000  0.3864  -1.9871   0.0000   0.2534
  -4.000  -0.4997   0.01399   0.00651   0.0078  1.0000  0.5161  -1.7360   0.0000   0.2616
  -3.500  -0.4589   0.01332   0.00625   0.0117  1.0000  0.6274  -1.4992   0.0000   0.2718
  -3.000  -0.4176   0.01294   0.00619   0.0161  1.0000  0.7267  -1.2838   0.0000   0.2852
  -2.500  -0.3755   0.01291   0.00634   0.0210  1.0000  0.8155  -1.0865   0.0000   0.3028
  -2.000  -0.3221   0.01325   0.00667   0.0240  1.0000  0.8937  -0.8954   0.0000   0.3215
  -1.500  -0.2150   0.01389   0.00706   0.0156  1.0000  0.9484  -0.6608   0.0000   0.3196
  -1.000  -0.0747   0.01395   0.00687  -0.0012  1.0000  0.9828  -0.4587   0.0000   0.2294
  -0.500   0.0071   0.01343   0.00629  -0.0087  1.0000  1.0000  -0.3630   0.0000   1.4848
   0.000   0.0000   0.01320   0.00609  -0.0000  1.0000  1.0000  -0.3444   0.0000   0.3893
   0.500  -0.0071   0.01343   0.00629   0.0087  1.0000  1.0000  -0.3630   0.0000   1.4856
   1.000   0.0747   0.01395   0.00687   0.0012  0.9828  1.0000  -0.4586   0.0000   0.2293
   1.500   0.2150   0.01388   0.00706  -0.0156  0.9484  1.0000  -0.6607   0.0000   0.3196
   2.000   0.3221   0.01325   0.00667  -0.0240  0.8937  1.0000  -0.8954   0.0000   0.3215
   2.500   0.3754   0.01291   0.00634  -0.0210  0.8155  1.0000  -1.0864   0.0000   0.3028
   3.000   0.4176   0.01294   0.00619  -0.0161  0.7267  1.0000  -1.2837   0.0000   0.2852
   3.500   0.4589   0.01332   0.00625  -0.0117  0.6274  1.0000  -1.4991   0.0000   0.2718
   4.000   0.4996   0.01399   0.00651  -0.0078  0.5162  1.0000  -1.7359   0.0000   0.2616
   4.500   0.5386   0.01505   0.00700  -0.0042  0.3865  1.0000  -1.9869   0.0000   0.2534
   5.000   0.5747   0.01687   0.00801  -0.0008  0.2455  1.0000  -2.2254   0.0000   0.2465
   5.500   0.6130   0.01915   0.00969   0.0022  0.1637  1.0000  -2.4695   0.0000   0.2413
   6.000   0.6556   0.02156   0.01178   0.0045  0.1260  1.0000  -2.7188   0.0000   0.2376
   6.500   0.7015   0.02422   0.01437   0.0064  0.1039  1.0000  -2.9941   0.0000   0.2350
   7.000   0.7479   0.02725   0.01775   0.0083  0.0897  1.0000  -3.2409   0.0000   0.2326
   7.500   0.7918   0.03112   0.02200   0.0103  0.0808  1.0000  -3.4888   0.0000   0.2304
   8.000   0.8322   0.03544   0.02682   0.0125  0.0745  1.0000  -3.7142   0.0000   0.2280


