XFLR5 v6.06

 Calculated polar for: hsfoil

 1 1 Reynolds number fixed          Mach number fixed         

 xtrf =   1.000 (top)        1.000 (bottom)
 Mach =   0.000     Re =     0.500 e 6     Ncrit =   9.000

  alpha     CL        CD       CDp       Cm    Top Xtr Bot Xtr   Cpmin    Chinge    XCp    
 ------- -------- --------- --------- -------- ------- ------- -------- --------- ---------
 -15.000  -1.1215   0.06368   0.06013  -0.0267  1.0000  0.0186  -7.2799   0.0000   0.2071
 -14.500  -1.1531   0.05234   0.04842  -0.0325  1.0000  0.0188  -7.3750   0.0000   0.2039
 -14.000  -1.1703   0.04444   0.04018  -0.0348  1.0000  0.0192  -7.3209   0.0000   0.2034
 -13.500  -1.1727   0.03917   0.03461  -0.0348  1.0000  0.0199  -7.1347   0.0000   0.2044
 -13.000  -1.1665   0.03548   0.03070  -0.0330  1.0000  0.0207  -6.8734   0.0000   0.2067
 -12.500  -1.1517   0.03297   0.02798  -0.0304  1.0000  0.0214  -6.5501   0.0000   0.2094
 -12.000  -1.1314   0.03125   0.02610  -0.0270  1.0000  0.0219  -6.1917   0.0000   0.2127
 -11.500  -1.1448   0.02485   0.01912  -0.0197  1.0000  0.0243  -6.2074   0.0000   0.2201
 -11.000  -1.1165   0.02272   0.01686  -0.0164  1.0000  0.0261  -5.9027   0.0000   0.2233
 -10.500  -1.0806   0.02121   0.01524  -0.0139  1.0000  0.0278  -5.5489   0.0000   0.2258
 -10.000  -1.0425   0.01978   0.01368  -0.0115  1.0000  0.0298  -5.1990   0.0000   0.2283
  -9.500  -1.0021   0.01855   0.01229  -0.0092  1.0000  0.0322  -4.8478   0.0000   0.2307
  -9.000  -0.9582   0.01780   0.01146  -0.0074  1.0000  0.0338  -4.4711   0.0000   0.2328
  -8.500  -0.9282   0.01560   0.00906  -0.0031  1.0000  0.0405  -4.2132   0.0000   0.2377
  -8.000  -0.8874   0.01474   0.00824  -0.0005  1.0000  0.0465  -3.8631   0.0000   0.2410
  -7.500  -0.8446   0.01413   0.00757   0.0018  1.0000  0.0509  -3.5133   0.0000   0.2443
  -7.000  -0.8070   0.01297   0.00631   0.0052  1.0000  0.0628  -3.2142   0.0000   0.2491
  -6.500  -0.7655   0.01227   0.00567   0.0078  1.0000  0.0750  -2.9042   0.0000   0.2533
  -6.000  -0.7241   0.01153   0.00502   0.0104  1.0000  0.0979  -2.6487   0.0000   0.2578
  -5.500  -0.6811   0.01092   0.00454   0.0126  1.0000  0.1286  -2.3912   0.0000   0.2624
  -5.000  -0.6269   0.01024   0.00407   0.0123  0.9981  0.1745  -2.1099   0.0000   0.2640
  -4.500  -0.5550   0.00955   0.00367   0.0084  0.9914  0.2402  -1.7986   0.0000   0.2598
  -4.000  -0.4796   0.00892   0.00336   0.0038  0.9848  0.3107  -1.5236   0.0000   0.2529
  -3.500  -0.4104   0.00832   0.00304   0.0008  0.9771  0.3841  -1.2891   0.0000   0.2470
  -3.000  -0.3427   0.00784   0.00278  -0.0017  0.9645  0.4471  -1.0841   0.0000   0.2403
  -2.500  -0.2725   0.00733   0.00253  -0.0046  0.9509  0.5126  -0.9045   0.0000   0.2284
  -2.000  -0.2141   0.00693   0.00237  -0.0048  0.9315  0.5754  -0.7678   0.0000   0.2232
  -1.000  -0.1044   0.00632   0.00203  -0.0031  0.8715  0.6837  -0.5578   0.0000   0.2163
  -0.500  -0.0523   0.00613   0.00196  -0.0015  0.8319  0.7394  -0.4819   0.0000   0.2169
   0.000   0.0000   0.00607   0.00194  -0.0000  0.7888  0.7888  -0.4181   0.0000   0.4608
   0.500   0.0523   0.00613   0.00196   0.0015  0.7395  0.8319  -0.4819   0.0000   0.2169
   1.000   0.1044   0.00632   0.00203   0.0031  0.6837  0.8715  -0.5578   0.0000   0.2163
   1.500   0.1565   0.00660   0.00214   0.0045  0.6298  0.9039  -0.6510   0.0000   0.2167
   2.000   0.2141   0.00693   0.00237   0.0048  0.5754  0.9315  -0.7678   0.0000   0.2232
   2.500   0.2725   0.00733   0.00253   0.0046  0.5126  0.9509  -0.9045   0.0000   0.2284
   3.000   0.3427   0.00783   0.00278   0.0017  0.4471  0.9645  -1.0841   0.0000   0.2403
   3.500   0.4104   0.00832   0.00304  -0.0008  0.3841  0.9771  -1.2890   0.0000   0.2470
   4.000   0.4797   0.00892   0.00336  -0.0038  0.3106  0.9848  -1.5237   0.0000   0.2529
   4.500   0.5550   0.00955   0.00367  -0.0084  0.2402  0.9915  -1.7987   0.0000   0.2598
   5.000   0.6270   0.01024   0.00407  -0.0123  0.1744  0.9982  -2.1100   0.0000   0.2640
   5.500   0.6809   0.01091   0.00454  -0.0125  0.1287  1.0000  -2.3906   0.0000   0.2623
   6.000   0.7238   0.01153   0.00502  -0.0103  0.0979  1.0000  -2.6481   0.0000   0.2578
   6.500   0.7653   0.01227   0.00567  -0.0077  0.0750  1.0000  -2.9036   0.0000   0.2532
   7.000   0.8068   0.01297   0.00630  -0.0052  0.0628  1.0000  -3.2136   0.0000   0.2490
   7.500   0.8444   0.01412   0.00756  -0.0018  0.0509  1.0000  -3.5127   0.0000   0.2443
   8.000   0.8873   0.01474   0.00823   0.0006  0.0465  1.0000  -3.8627   0.0000   0.2410
   8.500   0.9282   0.01559   0.00906   0.0031  0.0405  1.0000  -4.2130   0.0000   0.2377
   9.000   0.9582   0.01779   0.01146   0.0074  0.0338  1.0000  -4.4714   0.0000   0.2328
   9.500   1.0023   0.01855   0.01229   0.0092  0.0322  1.0000  -4.8485   0.0000   0.2307
  10.000   1.0427   0.01978   0.01368   0.0114  0.0298  1.0000  -5.2001   0.0000   0.2283
  10.500   1.0810   0.02121   0.01524   0.0138  0.0278  1.0000  -5.5506   0.0000   0.2259
  11.000   1.1171   0.02272   0.01686   0.0163  0.0261  1.0000  -5.9050   0.0000   0.2234
  11.500   1.1455   0.02486   0.01913   0.0195  0.0243  1.0000  -6.2099   0.0000   0.2203
  12.000   1.1330   0.03123   0.02609   0.0268  0.0219  1.0000  -6.2000   0.0000   0.2130
  12.500   1.1536   0.03295   0.02797   0.0301  0.0214  1.0000  -6.5602   0.0000   0.2098
  13.000   1.1688   0.03546   0.03067   0.0327  0.0207  1.0000  -6.8858   0.0000   0.2070
  13.500   1.1753   0.03914   0.03458   0.0344  0.0199  1.0000  -7.1491   0.0000   0.2048
  14.000   1.1733   0.04441   0.04016   0.0343  0.0192  1.0000  -7.3371   0.0000   0.2038
  14.500   1.1563   0.05235   0.04843   0.0319  0.0188  1.0000  -7.3902   0.0000   0.2044
  15.000   1.1249   0.06375   0.06020   0.0261  0.0186  1.0000  -7.2952   0.0000   0.2077


