XFLR5 v6.06

 Calculated polar for: hsfoil

 1 1 Reynolds number fixed          Mach number fixed         

 xtrf =   1.000 (top)        1.000 (bottom)
 Mach =   0.000     Re =     0.200 e 6     Ncrit =   9.000

  alpha     CL        CD       CDp       Cm    Top Xtr Bot Xtr   Cpmin    Chinge    XCp    
 ------- -------- --------- --------- -------- ------- ------- -------- --------- ---------
 -15.000  -0.6782   0.17110   0.16714   0.0261  1.0000  0.0583  -1.8838   0.0000   0.2733
 -14.500  -0.6661   0.16435   0.16038   0.0239  1.0000  0.0614  -1.8230   0.0000   0.2713
 -14.000  -0.6596   0.15669   0.15274   0.0207  1.0000  0.0655  -1.8188   0.0000   0.2674
 -13.500  -0.6601   0.14728   0.14335   0.0164  1.0000  0.0681  -1.9167   0.0000   0.2613
 -13.000  -0.7287   0.11618   0.11227   0.0018  1.0000  0.0471  -2.9360   0.0000   0.2383
 -12.500  -0.9487   0.06165   0.05722  -0.0336  1.0000  0.0401  -4.7236   0.0000   0.2006
 -12.000  -0.9923   0.05192   0.04705  -0.0353  1.0000  0.0403  -4.8660   0.0000   0.2013
 -11.500  -1.0143   0.04606   0.04082  -0.0317  1.0000  0.0411  -4.8749   0.0000   0.2065
 -11.000  -1.0194   0.04138   0.03575  -0.0268  1.0000  0.0425  -4.8088   0.0000   0.2121
 -10.500  -1.0074   0.03703   0.03093  -0.0229  1.0000  0.0445  -4.6802   0.0000   0.2163
 -10.000  -0.9853   0.03315   0.02663  -0.0194  1.0000  0.0469  -4.5071   0.0000   0.2199
  -9.500  -0.9511   0.03128   0.02450  -0.0167  1.0000  0.0505  -4.2329   0.0000   0.2225
  -9.000  -0.9255   0.02598   0.01866  -0.0132  1.0000  0.0555  -4.0891   0.0000   0.2263
  -8.500  -0.8906   0.02309   0.01561  -0.0103  1.0000  0.0622  -3.8403   0.0000   0.2295
  -8.000  -0.8513   0.02138   0.01377  -0.0077  1.0000  0.0698  -3.5531   0.0000   0.2326
  -7.500  -0.8097   0.02026   0.01243  -0.0052  1.0000  0.0767  -3.2472   0.0000   0.2357
  -7.000  -0.7763   0.01771   0.00990  -0.0015  1.0000  0.0957  -3.0043   0.0000   0.2407
  -6.500  -0.7346   0.01683   0.00890   0.0011  1.0000  0.1101  -2.7396   0.0000   0.2445
  -6.000  -0.6985   0.01521   0.00741   0.0045  1.0000  0.1459  -2.5282   0.0000   0.2499
  -5.500  -0.6606   0.01395   0.00645   0.0075  1.0000  0.2014  -2.3014   0.0000   0.2553
  -5.000  -0.6206   0.01302   0.00578   0.0101  1.0000  0.2681  -2.0648   0.0000   0.2606
  -4.500  -0.5794   0.01225   0.00536   0.0125  1.0000  0.3419  -1.8325   0.0000   0.2662
  -4.000  -0.5358   0.01174   0.00507   0.0145  1.0000  0.4103  -1.6174   0.0000   0.2721
  -3.500  -0.4914   0.01128   0.00493   0.0163  1.0000  0.4818  -1.4288   0.0000   0.2787
  -3.000  -0.4455   0.01100   0.00485   0.0179  1.0000  0.5477  -1.2424   0.0000   0.2859
  -2.500  -0.3919   0.01078   0.00495   0.0179  0.9972  0.6207  -1.0713   0.0000   0.2917
  -2.000  -0.3063   0.01062   0.00510   0.0119  0.9834  0.6961  -0.8729   0.0000   0.2850
  -1.500  -0.2332   0.01042   0.00510   0.0089  0.9638  0.7615  -0.7268   0.0000   0.2847
  -1.000  -0.1450   0.01033   0.00520   0.0034  0.9482  0.8187  -0.5916   0.0000   0.2697
  -0.500  -0.0764   0.01029   0.00527   0.0023  0.9251  0.8645  -0.4986   0.0000   0.2765
   0.000  -0.0000   0.01025   0.00524   0.0000  0.9006  0.9006  -0.4165   0.0000   0.5184
   0.500   0.0764   0.01029   0.00527  -0.0023  0.8645  0.9250  -0.4986   0.0000   0.2765
   1.000   0.1450   0.01033   0.00519  -0.0034  0.8187  0.9482  -0.5916   0.0000   0.2697
   1.500   0.2332   0.01042   0.00510  -0.0089  0.7614  0.9638  -0.7268   0.0000   0.2847
   2.000   0.3063   0.01061   0.00510  -0.0119  0.6961  0.9835  -0.8729   0.0000   0.2850
   2.500   0.3918   0.01078   0.00494  -0.0179  0.6206  0.9972  -1.0713   0.0000   0.2917
   3.000   0.4453   0.01100   0.00485  -0.0178  0.5478  1.0000  -1.2420   0.0000   0.2858
   3.500   0.4912   0.01128   0.00493  -0.0163  0.4819  1.0000  -1.4284   0.0000   0.2786
   4.000   0.5356   0.01174   0.00506  -0.0144  0.4104  1.0000  -1.6170   0.0000   0.2721
   4.500   0.5792   0.01225   0.00535  -0.0124  0.3420  1.0000  -1.8320   0.0000   0.2662
   5.000   0.6204   0.01302   0.00578  -0.0100  0.2682  1.0000  -2.0643   0.0000   0.2605
   5.500   0.6605   0.01395   0.00644  -0.0075  0.2015  1.0000  -2.3010   0.0000   0.2552
   6.000   0.6983   0.01520   0.00741  -0.0045  0.1460  1.0000  -2.5278   0.0000   0.2499
   6.500   0.7345   0.01683   0.00889  -0.0011  0.1101  1.0000  -2.7393   0.0000   0.2445
   7.000   0.7762   0.01771   0.00989   0.0015  0.0957  1.0000  -3.0040   0.0000   0.2406
   7.500   0.8096   0.02026   0.01243   0.0052  0.0767  1.0000  -3.2470   0.0000   0.2357
   8.000   0.8513   0.02137   0.01377   0.0077  0.0698  1.0000  -3.5532   0.0000   0.2326
   8.500   0.8907   0.02309   0.01561   0.0103  0.0622  1.0000  -3.8406   0.0000   0.2295
   9.000   0.9257   0.02599   0.01866   0.0132  0.0555  1.0000  -4.0894   0.0000   0.2264
   9.500   0.9514   0.03128   0.02450   0.0167  0.0505  1.0000  -4.2339   0.0000   0.2226
  10.000   0.9857   0.03315   0.02664   0.0193  0.0469  1.0000  -4.5082   0.0000   0.2200
  10.500   1.0080   0.03704   0.03094   0.0228  0.0445  1.0000  -4.6817   0.0000   0.2164
  11.000   1.0201   0.04141   0.03578   0.0266  0.0425  1.0000  -4.8108   0.0000   0.2123
  11.500   1.0155   0.04610   0.04085   0.0315  0.0411  1.0000  -4.8782   0.0000   0.2067
  12.000   0.9940   0.05196   0.04709   0.0350  0.0402  1.0000  -4.8724   0.0000   0.2017
  12.500   0.9508   0.06171   0.05728   0.0332  0.0401  1.0000  -4.7311   0.0000   0.2011
  13.000   0.7307   0.11666   0.11276  -0.0026  0.0471  1.0000  -2.9282   0.0000   0.2394
  13.500   0.6993   0.13419   0.13024  -0.0103  0.0486  1.0000  -2.5174   0.0000   0.2504
  14.000   0.6630   0.15700   0.15305  -0.0214  0.0653  1.0000  -1.8245   0.0000   0.2683
  14.500   0.6698   0.16467   0.16071  -0.0246  0.0612  1.0000  -1.8312   0.0000   0.2721
  15.000   0.6820   0.17147   0.16751  -0.0267  0.0582  1.0000  -1.8939   0.0000   0.2740


