XFLR5 v6.06

 Calculated polar for: hsfoil

 1 1 Reynolds number fixed          Mach number fixed         

 xtrf =   1.000 (top)        1.000 (bottom)
 Mach =   0.000     Re =     0.050 e 6     Ncrit =   9.000

  alpha     CL        CD       CDp       Cm    Top Xtr Bot Xtr   Cpmin    Chinge    XCp    
 ------- -------- --------- --------- -------- ------- ------- -------- --------- ---------
 -15.000  -0.7111   0.21071   0.20302   0.0276  1.0000  0.1888  -1.6604   0.0000   0.2755
 -14.500  -0.6385   0.18012   0.17219   0.0307  1.0000  0.2017  -1.4545   0.0000   0.2843
 -14.000  -0.6231   0.17331   0.16536   0.0293  1.0000  0.2149  -1.4464   0.0000   0.2838
 -13.500  -0.6579   0.17810   0.17028   0.0246  1.0000  0.2290  -1.5777   0.0000   0.2752
 -13.000  -0.6647   0.16828   0.16056   0.0210  1.0000  0.2330  -1.6506   0.0000   0.2701
 -12.500  -0.6001   0.15187   0.14397   0.0235  1.0000  0.2463  -1.4944   0.0000   0.2774
 -12.000  -0.6202   0.15152   0.14371   0.0212  1.0000  0.2703  -1.5609   0.0000   0.2734
 -11.500  -0.5894   0.13857   0.13073   0.0213  1.0000  0.2852  -1.4994   0.0000   0.2755
 -11.000  -0.5724   0.13104   0.12317   0.0207  1.0000  0.2994  -1.4680   0.0000   0.2760
 -10.500  -0.6412   0.13481   0.12721   0.0172  1.0000  0.3167  -1.6543   0.0000   0.2679
 -10.000  -0.6533   0.12570   0.11817   0.0138  1.0000  0.3171  -1.7207   0.0000   0.2628
  -9.500  -0.7301   0.07543   0.06788  -0.0179  1.0000  0.1662  -2.5259   0.0000   0.2166
  -9.000  -0.8278   0.05918   0.05117  -0.0198  1.0000  0.1562  -2.9482   0.0000   0.2177
  -8.500  -0.8288   0.05108   0.04249  -0.0169  1.0000  0.1605  -2.9432   0.0000   0.2217
  -8.000  -0.8141   0.04471   0.03560  -0.0135  1.0000  0.1701  -2.8698   0.0000   0.2258
  -7.500  -0.7913   0.04085   0.03101  -0.0097  1.0000  0.1886  -2.7451   0.0000   0.2306
  -7.000  -0.7600   0.03501   0.02514  -0.0068  1.0000  0.2138  -2.5891   0.0000   0.2343
  -6.500  -0.7247   0.03101   0.02093  -0.0035  1.0000  0.2490  -2.4559   0.0000   0.2387
  -6.000  -0.6886   0.02831   0.01831   0.0003  1.0000  0.3042  -2.2902   0.0000   0.2444
  -5.500  -0.6526   0.02593   0.01614   0.0047  1.0000  0.3780  -2.1082   0.0000   0.2515
  -5.000  -0.6165   0.02437   0.01496   0.0098  1.0000  0.4653  -1.9130   0.0000   0.2606
  -4.500  -0.5795   0.02356   0.01453   0.0156  1.0000  0.5550  -1.7061   0.0000   0.2721
  -4.000  -0.5411   0.02302   0.01419   0.0216  1.0000  0.6379  -1.5323   0.0000   0.2854
  -3.500  -0.5014   0.02299   0.01427   0.0281  1.0000  0.7172  -1.3584   0.0000   0.3018
  -3.000  -0.4394   0.02371   0.01491   0.0321  1.0000  0.7884  -1.1484   0.0000   0.3191
  -2.500  -0.3559   0.02429   0.01524   0.0305  1.0000  0.8603  -0.9488   0.0000   0.3317
  -2.000  -0.1792   0.02460   0.01502   0.0100  1.0000  0.9231  -0.6701   0.0000   0.3004
  -1.500  -0.0376   0.02329   0.01343  -0.0083  1.0000  0.9820  -0.5046   0.0000   0.0135
  -1.000   0.0305   0.02170   0.01182  -0.0155  1.0000  1.0000  -0.4281   0.0000   0.7696
  -0.500   0.0238   0.02100   0.01119  -0.0093  1.0000  1.0000  -0.4160   0.0000   0.6459
   0.000  -0.0000   0.02077   0.01100   0.0000  1.0000  1.0000  -0.4132   0.0000   0.3417
   0.500  -0.0238   0.02099   0.01119   0.0093  1.0000  1.0000  -0.4160   0.0000   0.6460
   1.000  -0.0305   0.02170   0.01181   0.0155  1.0000  1.0000  -0.4281   0.0000   0.7704
   1.500   0.0375   0.02327   0.01341   0.0083  0.9820  1.0000  -0.5044   0.0000   0.0115
   2.000   0.1792   0.02459   0.01500  -0.0100  0.9232  1.0000  -0.6701   0.0000   0.3003
   2.500   0.3556   0.02428   0.01524  -0.0305  0.8604  1.0000  -0.9485   0.0000   0.3316
   3.000   0.4392   0.02370   0.01490  -0.0321  0.7885  1.0000  -1.1482   0.0000   0.3191
   3.500   0.5013   0.02298   0.01426  -0.0281  0.7173  1.0000  -1.3582   0.0000   0.3018
   4.000   0.5409   0.02302   0.01419  -0.0216  0.6380  1.0000  -1.5320   0.0000   0.2854
   4.500   0.5794   0.02356   0.01453  -0.0156  0.5551  1.0000  -1.7057   0.0000   0.2721
   5.000   0.6163   0.02436   0.01496  -0.0097  0.4654  1.0000  -1.9127   0.0000   0.2605
   5.500   0.6525   0.02593   0.01614  -0.0047  0.3781  1.0000  -2.1079   0.0000   0.2515
   6.000   0.6885   0.02830   0.01830  -0.0003  0.3042  1.0000  -2.2901   0.0000   0.2444
   6.500   0.7246   0.03100   0.02093   0.0035  0.2490  1.0000  -2.4558   0.0000   0.2387
   7.000   0.7600   0.03501   0.02513   0.0068  0.2138  1.0000  -2.5891   0.0000   0.2342
   7.500   0.7913   0.04085   0.03100   0.0097  0.1885  1.0000  -2.7452   0.0000   0.2306
   8.000   0.8142   0.04471   0.03560   0.0135  0.1701  1.0000  -2.8701   0.0000   0.2258
   8.500   0.8291   0.05108   0.04249   0.0169  0.1605  1.0000  -2.9437   0.0000   0.2217
   9.000   0.8282   0.05920   0.05119   0.0198  0.1562  1.0000  -2.9491   0.0000   0.2178
   9.500   0.7308   0.07555   0.06800   0.0177  0.1662  1.0000  -2.5254   0.0000   0.2170
  10.000   0.6669   0.09568   0.08800   0.0049  0.1784  1.0000  -2.1565   0.0000   0.2331
  10.500   0.6780   0.10809   0.10048   0.0025  0.1924  1.0000  -2.1131   0.0000   0.2367
  11.000   0.5751   0.13116   0.12329  -0.0212  0.2990  1.0000  -1.4717   0.0000   0.2767
  11.500   0.5931   0.13879   0.13095  -0.0218  0.2849  1.0000  -1.5055   0.0000   0.2761
  12.000   0.6206   0.15123   0.14341  -0.0218  0.2700  1.0000  -1.5582   0.0000   0.2743
  12.500   0.6039   0.15213   0.14424  -0.0240  0.2458  1.0000  -1.5008   0.0000   0.2780
  13.000   0.6721   0.16990   0.16219  -0.0212  0.2326  1.0000  -1.6655   0.0000   0.2701
  13.500   0.6595   0.17802   0.17020  -0.0252  0.2289  1.0000  -1.5770   0.0000   0.2761
  14.000   0.6262   0.17365   0.16570  -0.0299  0.2145  1.0000  -1.4495   0.0000   0.2845
  14.500   0.6422   0.18061   0.17268  -0.0313  0.2014  1.0000  -1.4592   0.0000   0.2849
  15.000   0.7133   0.21090   0.20321  -0.0283  0.1887  1.0000  -1.6619   0.0000   0.2763


