XFLR5 v6.06

 Calculated polar for: hsfoil

 1 1 Reynolds number fixed          Mach number fixed         

 xtrf =   1.000 (top)        1.000 (bottom)
 Mach =   0.000     Re =     0.150 e 6     Ncrit =   9.000

  alpha     CL        CD       CDp       Cm    Top Xtr Bot Xtr   Cpmin    Chinge    XCp    
 ------- -------- --------- --------- -------- ------- ------- -------- --------- ---------
 -15.000  -0.6755   0.18234   0.17778   0.0228  1.0000  0.0769  -1.8107   0.0000   0.2690
 -14.500  -0.6692   0.17328   0.16872   0.0188  1.0000  0.0771  -1.8454   0.0000   0.2639
 -14.000  -0.6648   0.16339   0.15884   0.0149  1.0000  0.0773  -1.8951   0.0000   0.2585
 -13.500  -0.6736   0.14673   0.14224   0.0133  1.0000  0.0827  -2.0091   0.0000   0.2563
 -13.000  -0.6626   0.13934   0.13484   0.0121  1.0000  0.0853  -2.0025   0.0000   0.2554
 -12.500  -0.6843   0.12179   0.11729   0.0047  1.0000  0.0657  -2.3998   0.0000   0.2440
 -10.000  -0.9739   0.03768   0.03088  -0.0209  1.0000  0.0568  -4.3130   0.0000   0.2182
  -9.500  -0.9464   0.03460   0.02764  -0.0181  1.0000  0.0619  -4.0824   0.0000   0.2211
  -9.000  -0.9166   0.03094   0.02359  -0.0149  1.0000  0.0667  -3.8947   0.0000   0.2245
  -8.500  -0.8812   0.02789   0.02017  -0.0120  1.0000  0.0725  -3.6744   0.0000   0.2276
  -8.000  -0.8409   0.02614   0.01810  -0.0094  1.0000  0.0772  -3.4050   0.0000   0.2305
  -7.500  -0.8076   0.02195   0.01374  -0.0063  1.0000  0.0941  -3.1909   0.0000   0.2343
  -7.000  -0.7671   0.02052   0.01214  -0.0036  1.0000  0.1081  -2.9150   0.0000   0.2380
  -6.500  -0.7311   0.01816   0.00986  -0.0002  1.0000  0.1335  -2.7074   0.0000   0.2428
  -6.000  -0.6936   0.01667   0.00852   0.0030  1.0000  0.1722  -2.4912   0.0000   0.2478
  -5.500  -0.6552   0.01542   0.00745   0.0060  1.0000  0.2286  -2.2686   0.0000   0.2530
  -5.000  -0.6176   0.01427   0.00667   0.0090  1.0000  0.3057  -2.0424   0.0000   0.2589
  -4.500  -0.5775   0.01347   0.00620   0.0117  1.0000  0.3813  -1.8151   0.0000   0.2650
  -4.000  -0.5352   0.01292   0.00587   0.0141  1.0000  0.4537  -1.6075   0.0000   0.2715
  -3.500  -0.4924   0.01242   0.00572   0.0165  1.0000  0.5261  -1.4227   0.0000   0.2791
  -3.000  -0.4479   0.01211   0.00562   0.0186  1.0000  0.5957  -1.2391   0.0000   0.2875
  -2.500  -0.4033   0.01193   0.00572   0.0208  1.0000  0.6648  -1.0825   0.0000   0.2978
  -2.000  -0.3603   0.01191   0.00599   0.0233  1.0000  0.7328  -0.9429   0.0000   0.3113
  -1.500  -0.2924   0.01212   0.00641   0.0212  0.9893  0.8030  -0.7920   0.0000   0.3194
  -1.000  -0.2100   0.01242   0.00680   0.0169  0.9692  0.8625  -0.6500   0.0000   0.3278
  -0.500  -0.1107   0.01277   0.00717   0.0096  0.9500  0.9054  -0.5231   0.0000   0.3336
   0.000   0.0000   0.01301   0.00742  -0.0000  0.9321  0.9321  -0.4150   0.0000   0.4869
   0.500   0.1107   0.01277   0.00717  -0.0096  0.9054  0.9500  -0.5231   0.0000   0.3336
   1.000   0.2099   0.01242   0.00680  -0.0169  0.8625  0.9693  -0.6500   0.0000   0.3278
   1.500   0.2924   0.01211   0.00641  -0.0212  0.8030  0.9893  -0.7920   0.0000   0.3194
   2.000   0.3601   0.01191   0.00599  -0.0233  0.7329  1.0000  -0.9426   0.0000   0.3112
   2.500   0.4031   0.01193   0.00572  -0.0208  0.6649  1.0000  -1.0822   0.0000   0.2978
   3.000   0.4477   0.01210   0.00561  -0.0186  0.5958  1.0000  -1.2388   0.0000   0.2874
   3.500   0.4922   0.01242   0.00571  -0.0165  0.5262  1.0000  -1.4223   0.0000   0.2790
   4.000   0.5350   0.01291   0.00587  -0.0141  0.4539  1.0000  -1.6071   0.0000   0.2715
   4.500   0.5773   0.01347   0.00619  -0.0117  0.3814  1.0000  -1.8147   0.0000   0.2650
   5.000   0.6174   0.01427   0.00667  -0.0090  0.3058  1.0000  -2.0420   0.0000   0.2589
   5.500   0.6550   0.01542   0.00744  -0.0059  0.2287  1.0000  -2.2682   0.0000   0.2530
   6.000   0.6935   0.01667   0.00851  -0.0029  0.1723  1.0000  -2.4908   0.0000   0.2477
   6.500   0.7310   0.01816   0.00986   0.0002  0.1335  1.0000  -2.7071   0.0000   0.2428
   7.000   0.7670   0.02052   0.01213   0.0036  0.1081  1.0000  -2.9148   0.0000   0.2380
   7.500   0.8076   0.02195   0.01373   0.0063  0.0941  1.0000  -3.1908   0.0000   0.2343
   8.000   0.8409   0.02614   0.01810   0.0094  0.0772  1.0000  -3.4051   0.0000   0.2305
   8.500   0.8813   0.02789   0.02017   0.0120  0.0725  1.0000  -3.6747   0.0000   0.2276
   9.000   0.9168   0.03094   0.02359   0.0149  0.0667  1.0000  -3.8951   0.0000   0.2245
   9.500   0.9466   0.03460   0.02765   0.0181  0.0619  1.0000  -4.0831   0.0000   0.2212
  10.000   0.9743   0.03769   0.03089   0.0209  0.0568  1.0000  -4.3143   0.0000   0.2183
  10.500   0.9671   0.04622   0.04002   0.0254  0.0527  1.0000  -4.3030   0.0000   0.2129
  11.000   0.9348   0.05521   0.04963   0.0306  0.0520  1.0000  -4.1804   0.0000   0.2059
  11.500   0.8942   0.06321   0.05804   0.0332  0.0520  1.0000  -4.0616   0.0000   0.2006
  12.000   0.8537   0.07315   0.06830   0.0293  0.0523  1.0000  -3.9175   0.0000   0.2025
  12.500   0.8125   0.08694   0.08235   0.0192  0.0530  1.0000  -3.6979   0.0000   0.2123
  13.000   0.6887   0.13436   0.12991  -0.0055  0.0791  1.0000  -2.2801   0.0000   0.2448
  13.500   0.6779   0.14685   0.14236  -0.0137  0.0825  1.0000  -2.0214   0.0000   0.2567
  14.000   0.6678   0.16378   0.15924  -0.0155  0.0773  1.0000  -1.8985   0.0000   0.2594
  14.500   0.6722   0.17370   0.16914  -0.0195  0.0771  1.0000  -1.8490   0.0000   0.2647
  15.000   0.6786   0.18280   0.17824  -0.0235  0.0769  1.0000  -1.8146   0.0000   0.2698


