XFLR5 v6.06

 Calculated polar for: hsfoil

 1 1 Reynolds number fixed          Mach number fixed         

 xtrf =   1.000 (top)        1.000 (bottom)
 Mach =   0.000     Re =     0.450 e 6     Ncrit =   9.000

  alpha     CL        CD       CDp       Cm    Top Xtr Bot Xtr   Cpmin    Chinge    XCp    
 ------- -------- --------- --------- -------- ------- ------- -------- --------- ---------
 -15.000  -1.0426   0.07650   0.07316  -0.0198  1.0000  0.0204  -6.5414   0.0000   0.2118
 -14.500  -1.0912   0.06138   0.05765  -0.0289  1.0000  0.0204  -6.8123   0.0000   0.2054
 -14.000  -1.1155   0.05150   0.04743  -0.0338  1.0000  0.0207  -6.8362   0.0000   0.2028
 -13.500  -1.1250   0.04498   0.04063  -0.0353  1.0000  0.0211  -6.7155   0.0000   0.2026
 -13.000  -1.1224   0.04062   0.03602  -0.0349  1.0000  0.0216  -6.4924   0.0000   0.2039
 -12.500  -1.1198   0.03684   0.03198  -0.0325  1.0000  0.0220  -6.2718   0.0000   0.2068
 -12.000  -1.1543   0.02863   0.02308  -0.0250  1.0000  0.0241  -6.3834   0.0000   0.2149
 -11.500  -1.1365   0.02610   0.02040  -0.0207  1.0000  0.0258  -6.1127   0.0000   0.2191
 -11.000  -1.1053   0.02437   0.01855  -0.0179  1.0000  0.0274  -5.7811   0.0000   0.2218
 -10.500  -1.0707   0.02267   0.01669  -0.0153  1.0000  0.0292  -5.4486   0.0000   0.2244
 -10.000  -1.0338   0.02104   0.01489  -0.0128  1.0000  0.0311  -5.1181   0.0000   0.2269
  -9.500  -0.9934   0.01978   0.01345  -0.0106  1.0000  0.0330  -4.7706   0.0000   0.2293
  -9.000  -0.9576   0.01796   0.01143  -0.0075  1.0000  0.0359  -4.4698   0.0000   0.2326
  -8.500  -0.9234   0.01622   0.00965  -0.0041  1.0000  0.0428  -4.1725   0.0000   0.2367
  -8.000  -0.8819   0.01542   0.00881  -0.0016  1.0000  0.0481  -3.8233   0.0000   0.2398
  -7.500  -0.8385   0.01485   0.00814   0.0007  1.0000  0.0515  -3.4712   0.0000   0.2429
  -7.000  -0.8039   0.01333   0.00658   0.0045  1.0000  0.0662  -3.1957   0.0000   0.2482
  -6.500  -0.7614   0.01274   0.00598   0.0070  1.0000  0.0762  -2.8842   0.0000   0.2522
  -6.000  -0.7213   0.01183   0.00522   0.0097  1.0000  0.1028  -2.6366   0.0000   0.2570
  -5.500  -0.6788   0.01116   0.00469   0.0120  1.0000  0.1358  -2.3821   0.0000   0.2616
  -5.000  -0.6352   0.01055   0.00425   0.0140  1.0000  0.1793  -2.1280   0.0000   0.2663
  -4.500  -0.5685   0.00985   0.00386   0.0111  0.9951  0.2474  -1.8291   0.0000   0.2642
  -4.000  -0.4934   0.00926   0.00355   0.0066  0.9874  0.3156  -1.5491   0.0000   0.2583
  -3.500  -0.4158   0.00866   0.00327   0.0016  0.9812  0.3957  -1.2983   0.0000   0.2490
  -3.000  -0.3527   0.00815   0.00299   0.0001  0.9681  0.4598  -1.0986   0.0000   0.2457
  -2.500  -0.2809   0.00765   0.00276  -0.0031  0.9552  0.5264  -0.9161   0.0000   0.2343
  -2.000  -0.2138   0.00726   0.00257  -0.0052  0.9390  0.5880  -0.7675   0.0000   0.2213
  -1.500  -0.1595   0.00684   0.00238  -0.0042  0.9134  0.6484  -0.6538   0.0000   0.2193
  -1.000  -0.1050   0.00657   0.00226  -0.0032  0.8834  0.7017  -0.5583   0.0000   0.2155
  -0.500  -0.0522   0.00638   0.00216  -0.0016  0.8450  0.7547  -0.4818   0.0000   0.2145
   0.000   0.0000   0.00633   0.00214  -0.0000  0.8036  0.8036  -0.4181   0.0000   0.4523
   0.500   0.0522   0.00638   0.00216   0.0016  0.7547  0.8450  -0.4818   0.0000   0.2145
   1.000   0.1050   0.00657   0.00226   0.0032  0.7017  0.8834  -0.5583   0.0000   0.2155
   1.500   0.1595   0.00684   0.00238   0.0042  0.6484  0.9135  -0.6538   0.0000   0.2193
   2.000   0.2138   0.00725   0.00257   0.0052  0.5880  0.9390  -0.7675   0.0000   0.2213
   2.500   0.2809   0.00765   0.00276   0.0031  0.5264  0.9552  -0.9161   0.0000   0.2343
   3.000   0.3527   0.00815   0.00299  -0.0001  0.4598  0.9682  -1.0986   0.0000   0.2457
   3.500   0.4157   0.00866   0.00327  -0.0016  0.3958  0.9812  -1.2982   0.0000   0.2489
   4.000   0.4935   0.00926   0.00354  -0.0066  0.3156  0.9875  -1.5492   0.0000   0.2583
   4.500   0.5686   0.00985   0.00386  -0.0111  0.2474  0.9952  -1.8292   0.0000   0.2642
   5.000   0.6349   0.01055   0.00425  -0.0139  0.1793  1.0000  -2.1274   0.0000   0.2663
   5.500   0.6786   0.01116   0.00469  -0.0120  0.1359  1.0000  -2.3815   0.0000   0.2616
   6.000   0.7211   0.01183   0.00521  -0.0097  0.1029  1.0000  -2.6360   0.0000   0.2570
   6.500   0.7612   0.01274   0.00598  -0.0069  0.0762  1.0000  -2.8837   0.0000   0.2522
   7.000   0.8037   0.01332   0.00658  -0.0045  0.0663  1.0000  -3.1951   0.0000   0.2482
   7.500   0.8383   0.01484   0.00814  -0.0006  0.0515  1.0000  -3.4707   0.0000   0.2429
   8.000   0.8818   0.01541   0.00880   0.0016  0.0481  1.0000  -3.8230   0.0000   0.2398
   8.500   0.9233   0.01622   0.00964   0.0041  0.0428  1.0000  -4.1724   0.0000   0.2367
   9.000   0.9576   0.01796   0.01143   0.0075  0.0359  1.0000  -4.4699   0.0000   0.2327
   9.500   0.9937   0.01978   0.01345   0.0105  0.0330  1.0000  -4.7715   0.0000   0.2293
  10.000   1.0341   0.02104   0.01489   0.0127  0.0311  1.0000  -5.1192   0.0000   0.2270
  10.500   1.0712   0.02267   0.01669   0.0152  0.0291  1.0000  -5.4503   0.0000   0.2245
  11.000   1.1059   0.02437   0.01855   0.0178  0.0274  1.0000  -5.7835   0.0000   0.2219
  11.500   1.1374   0.02610   0.02040   0.0206  0.0258  1.0000  -6.1161   0.0000   0.2192
  12.000   1.1554   0.02867   0.02312   0.0248  0.0240  1.0000  -6.3878   0.0000   0.2151
  12.500   1.1191   0.03713   0.03230   0.0323  0.0219  1.0000  -6.2602   0.0000   0.2070
  13.000   1.1251   0.04057   0.03597   0.0345  0.0216  1.0000  -6.5067   0.0000   0.2043
  13.500   1.1281   0.04493   0.04057   0.0349  0.0211  1.0000  -6.7323   0.0000   0.2031
  14.000   1.1190   0.05144   0.04737   0.0333  0.0206  1.0000  -6.8550   0.0000   0.2033
  14.500   1.0951   0.06133   0.05760   0.0283  0.0203  1.0000  -6.8324   0.0000   0.2060
  15.000   1.0468   0.07652   0.07318   0.0191  0.0203  1.0000  -6.5615   0.0000   0.2126


