XFLR5 v6.06

 Calculated polar for: hsfoil

 1 1 Reynolds number fixed          Mach number fixed         

 xtrf =   1.000 (top)        1.000 (bottom)
 Mach =   0.000     Re =     0.600 e 6     Ncrit =   9.000

  alpha     CL        CD       CDp       Cm    Top Xtr Bot Xtr   Cpmin    Chinge    XCp    
 ------- -------- --------- --------- -------- ------- ------- -------- --------- ---------
 -15.000  -1.2241   0.04896   0.04493  -0.0319  1.0000  0.0164  -8.2585   0.0000   0.2050
 -14.500  -1.2352   0.04184   0.03754  -0.0338  1.0000  0.0167  -8.1372   0.0000   0.2047
 -14.000  -1.2372   0.03649   0.03194  -0.0338  1.0000  0.0172  -7.9322   0.0000   0.2058
 -13.500  -1.2325   0.03255   0.02778  -0.0321  1.0000  0.0179  -7.6691   0.0000   0.2081
 -13.000  -1.2179   0.02990   0.02492  -0.0295  1.0000  0.0190  -7.3300   0.0000   0.2108
 -12.500  -1.1983   0.02791   0.02278  -0.0262  1.0000  0.0202  -6.9572   0.0000   0.2139
 -12.000  -1.1743   0.02638   0.02111  -0.0226  1.0000  0.0211  -6.5632   0.0000   0.2174
 -11.500  -1.1410   0.02524   0.01985  -0.0199  1.0000  0.0217  -6.1680   0.0000   0.2199
 -11.000  -1.1233   0.02169   0.01593  -0.0154  1.0000  0.0233  -5.9729   0.0000   0.2243
 -10.500  -1.0951   0.01930   0.01333  -0.0117  1.0000  0.0255  -5.6931   0.0000   0.2280
 -10.000  -1.0567   0.01794   0.01190  -0.0093  1.0000  0.0277  -5.3311   0.0000   0.2305
  -9.500  -1.0152   0.01689   0.01074  -0.0071  1.0000  0.0303  -4.9591   0.0000   0.2329
  -9.000  -0.9721   0.01607   0.00985  -0.0051  1.0000  0.0329  -4.5830   0.0000   0.2353
  -8.500  -0.9293   0.01536   0.00908  -0.0028  1.0000  0.0345  -4.2134   0.0000   0.2380
  -8.000  -0.8957   0.01378   0.00742   0.0011  1.0000  0.0434  -3.9230   0.0000   0.2428
  -7.500  -0.8536   0.01312   0.00676   0.0036  1.0000  0.0494  -3.5718   0.0000   0.2463
  -7.000  -0.8109   0.01260   0.00614   0.0060  1.0000  0.0534  -3.2288   0.0000   0.2501
  -6.500  -0.7718   0.01162   0.00526   0.0091  1.0000  0.0717  -2.9328   0.0000   0.2549
  -6.000  -0.7285   0.01112   0.00474   0.0114  1.0000  0.0860  -2.6662   0.0000   0.2592
  -5.500  -0.6756   0.01046   0.00426   0.0115  0.9985  0.1162  -2.3809   0.0000   0.2609
  -5.000  -0.6062   0.00971   0.00375   0.0081  0.9929  0.1677  -2.0616   0.0000   0.2577
  -4.500  -0.5334   0.00903   0.00337   0.0041  0.9867  0.2290  -1.7502   0.0000   0.2522
  -4.000  -0.4572   0.00839   0.00304  -0.0007  0.9819  0.2993  -1.4822   0.0000   0.2433
  -3.500  -0.3971   0.00785   0.00272  -0.0016  0.9709  0.3607  -1.2658   0.0000   0.2411
  -3.000  -0.3305   0.00731   0.00243  -0.0038  0.9573  0.4260  -1.0667   0.0000   0.2336
  -2.500  -0.2648   0.00687   0.00222  -0.0057  0.9410  0.4891  -0.8939   0.0000   0.2235
  -2.000  -0.2118   0.00650   0.00203  -0.0047  0.9172  0.5469  -0.7651   0.0000   0.2231
  -1.500  -0.1575   0.00618   0.00185  -0.0039  0.8875  0.6023  -0.6519   0.0000   0.2207
  -1.000  -0.1048   0.00595   0.00173  -0.0026  0.8498  0.6586  -0.5580   0.0000   0.2205
  -0.500  -0.0524   0.00583   0.00165  -0.0013  0.8080  0.7118  -0.4819   0.0000   0.2205
   0.000   0.0000   0.00580   0.00163  -0.0000  0.7605  0.7605  -0.4182   0.0000   0.4777
   0.500   0.0524   0.00583   0.00165   0.0013  0.7118  0.8080  -0.4819   0.0000   0.2205
   1.000   0.1048   0.00595   0.00173   0.0026  0.6586  0.8498  -0.5580   0.0000   0.2205
   1.500   0.1575   0.00618   0.00185   0.0039  0.6023  0.8875  -0.6519   0.0000   0.2208
   2.000   0.2118   0.00650   0.00203   0.0047  0.5470  0.9172  -0.7651   0.0000   0.2231
   2.500   0.2648   0.00687   0.00222   0.0057  0.4891  0.9410  -0.8939   0.0000   0.2235
   3.000   0.3305   0.00731   0.00243   0.0038  0.4260  0.9573  -1.0667   0.0000   0.2336
   3.500   0.3971   0.00785   0.00271   0.0016  0.3607  0.9709  -1.2657   0.0000   0.2411
   4.000   0.4572   0.00838   0.00304   0.0007  0.2993  0.9819  -1.4823   0.0000   0.2433
   4.500   0.5335   0.00902   0.00337  -0.0041  0.2290  0.9867  -1.7503   0.0000   0.2522
   5.000   0.6062   0.00971   0.00375  -0.0081  0.1677  0.9930  -2.0617   0.0000   0.2577
   5.500   0.6756   0.01045   0.00425  -0.0115  0.1162  0.9986  -2.3810   0.0000   0.2610
   6.000   0.7282   0.01111   0.00474  -0.0113  0.0861  1.0000  -2.6656   0.0000   0.2591
   6.500   0.7715   0.01161   0.00525  -0.0090  0.0717  1.0000  -2.9321   0.0000   0.2548
   7.000   0.8107   0.01259   0.00614  -0.0060  0.0535  1.0000  -3.2283   0.0000   0.2500
   7.500   0.8534   0.01312   0.00676  -0.0035  0.0494  1.0000  -3.5712   0.0000   0.2463
   8.000   0.8956   0.01377   0.00742  -0.0011  0.0434  1.0000  -3.9226   0.0000   0.2428
   8.500   0.9293   0.01535   0.00907   0.0028  0.0345  1.0000  -4.2133   0.0000   0.2380
   9.000   0.9721   0.01607   0.00985   0.0051  0.0329  1.0000  -4.5831   0.0000   0.2353
   9.500   1.0153   0.01689   0.01074   0.0071  0.0303  1.0000  -4.9596   0.0000   0.2329
  10.000   1.0570   0.01793   0.01190   0.0092  0.0277  1.0000  -5.3320   0.0000   0.2306
  10.500   1.0955   0.01931   0.01333   0.0116  0.0255  1.0000  -5.6944   0.0000   0.2280
  11.000   1.1238   0.02171   0.01594   0.0153  0.0233  1.0000  -5.9743   0.0000   0.2244
  11.500   1.1419   0.02523   0.01985   0.0198  0.0217  1.0000  -6.1719   0.0000   0.2200
  12.000   1.1756   0.02638   0.02111   0.0223  0.0211  1.0000  -6.5698   0.0000   0.2176
  12.500   1.1999   0.02791   0.02278   0.0259  0.0202  1.0000  -6.9659   0.0000   0.2142
  13.000   1.2199   0.02989   0.02491   0.0291  0.0189  1.0000  -7.3410   0.0000   0.2111
  13.500   1.2349   0.03253   0.02776   0.0317  0.0179  1.0000  -7.6826   0.0000   0.2084
  14.000   1.2399   0.03647   0.03191   0.0334  0.0172  1.0000  -7.9475   0.0000   0.2062
  14.500   1.2385   0.04180   0.03749   0.0334  0.0167  1.0000  -8.1559   0.0000   0.2052
  15.000   1.2279   0.04890   0.04487   0.0314  0.0164  1.0000  -8.2803   0.0000   0.2055


