XFLR5 v6.06

 Calculated polar for: hsfoil

 1 1 Reynolds number fixed          Mach number fixed         

 xtrf =   1.000 (top)        1.000 (bottom)
 Mach =   0.000     Re =     0.350 e 6     Ncrit =   9.000

  alpha     CL        CD       CDp       Cm    Top Xtr Bot Xtr   Cpmin    Chinge    XCp    
 ------- -------- --------- --------- -------- ------- ------- -------- --------- ---------
 -14.500  -1.0423   0.06945   0.06567  -0.0261  1.0000  0.0240  -6.3134   0.0000   0.2069
 -14.000  -1.0821   0.05675   0.05257  -0.0332  1.0000  0.0241  -6.4866   0.0000   0.2024
 -13.500  -1.1070   0.04803   0.04352  -0.0359  1.0000  0.0246  -6.5000   0.0000   0.2016
 -13.000  -1.1190   0.04196   0.03717  -0.0355  1.0000  0.0254  -6.3981   0.0000   0.2033
 -12.500  -1.1202   0.03784   0.03282  -0.0330  1.0000  0.0264  -6.2043   0.0000   0.2065
 -12.000  -1.1143   0.03471   0.02947  -0.0290  1.0000  0.0277  -5.9629   0.0000   0.2107
 -11.500  -1.1016   0.03196   0.02647  -0.0245  1.0000  0.0293  -5.7195   0.0000   0.2152
 -11.000  -1.0774   0.02934   0.02358  -0.0212  1.0000  0.0309  -5.4729   0.0000   0.2184
 -10.500  -1.0467   0.02704   0.02102  -0.0183  1.0000  0.0324  -5.1924   0.0000   0.2212
 -10.000  -1.0105   0.02530   0.01903  -0.0159  1.0000  0.0336  -4.8790   0.0000   0.2236
  -9.500  -0.9854   0.02118   0.01450  -0.0119  1.0000  0.0371  -4.6991   0.0000   0.2279
  -9.000  -0.9498   0.01940   0.01268  -0.0090  1.0000  0.0424  -4.3906   0.0000   0.2310
  -8.500  -0.9082   0.01843   0.01166  -0.0068  1.0000  0.0476  -4.0432   0.0000   0.2336
  -8.000  -0.8661   0.01756   0.01068  -0.0045  1.0000  0.0511  -3.7071   0.0000   0.2365
  -7.500  -0.8346   0.01546   0.00838  -0.0002  1.0000  0.0617  -3.4523   0.0000   0.2418
  -7.000  -0.7942   0.01454   0.00749   0.0025  1.0000  0.0726  -3.1357   0.0000   0.2458
  -6.500  -0.7542   0.01362   0.00652   0.0054  1.0000  0.0877  -2.8526   0.0000   0.2502
  -6.000  -0.7130   0.01284   0.00584   0.0080  1.0000  0.1096  -2.5998   0.0000   0.2547
  -5.500  -0.6721   0.01198   0.00516   0.0105  1.0000  0.1477  -2.3558   0.0000   0.2596
  -5.000  -0.6301   0.01119   0.00462   0.0127  1.0000  0.2053  -2.1087   0.0000   0.2645
  -4.500  -0.5861   0.01057   0.00428   0.0145  1.0000  0.2672  -1.8659   0.0000   0.2695
  -4.000  -0.5293   0.01002   0.00403   0.0137  0.9973  0.3352  -1.6158   0.0000   0.2709
  -3.500  -0.4520   0.00950   0.00379   0.0087  0.9880  0.4129  -1.3644   0.0000   0.2646
  -3.000  -0.3743   0.00902   0.00359   0.0039  0.9797  0.4904  -1.1296   0.0000   0.2559
  -2.500  -0.3068   0.00852   0.00338   0.0016  0.9645  0.5568  -0.9521   0.0000   0.2508
  -2.000  -0.2300   0.00809   0.00319  -0.0025  0.9515  0.6234  -0.7858   0.0000   0.2347
  -1.500  -0.1661   0.00771   0.00304  -0.0036  0.9333  0.6840  -0.6601   0.0000   0.2240
  -1.000  -0.1065   0.00734   0.00286  -0.0033  0.9068  0.7403  -0.5593   0.0000   0.2142
  -0.500  -0.0533   0.00713   0.00280  -0.0017  0.8738  0.7903  -0.4825   0.0000   0.2134
   0.000  -0.0000   0.00706   0.00278   0.0000  0.8355  0.8355  -0.4178   0.0000   0.4694
   0.500   0.0533   0.00713   0.00280   0.0017  0.7903  0.8738  -0.4825   0.0000   0.2134
   1.000   0.1065   0.00734   0.00286   0.0033  0.7403  0.9068  -0.5593   0.0000   0.2142
   1.500   0.1661   0.00771   0.00304   0.0036  0.6840  0.9333  -0.6600   0.0000   0.2240
   2.000   0.2300   0.00809   0.00319   0.0025  0.6234  0.9515  -0.7858   0.0000   0.2347
   2.500   0.3068   0.00852   0.00338  -0.0016  0.5569  0.9646  -0.9520   0.0000   0.2508
   3.000   0.3742   0.00902   0.00359  -0.0039  0.4903  0.9798  -1.1295   0.0000   0.2558
   3.500   0.4520   0.00950   0.00379  -0.0087  0.4129  0.9880  -1.3644   0.0000   0.2646
   4.000   0.5293   0.01002   0.00402  -0.0137  0.3352  0.9974  -1.6159   0.0000   0.2709
   4.500   0.5859   0.01057   0.00428  -0.0145  0.2673  1.0000  -1.8653   0.0000   0.2694
   5.000   0.6299   0.01118   0.00461  -0.0127  0.2054  1.0000  -2.1081   0.0000   0.2645
   5.500   0.6719   0.01197   0.00515  -0.0105  0.1477  1.0000  -2.3552   0.0000   0.2595
   6.000   0.7128   0.01284   0.00584  -0.0079  0.1096  1.0000  -2.5992   0.0000   0.2546
   6.500   0.7540   0.01362   0.00651  -0.0054  0.0877  1.0000  -2.8522   0.0000   0.2502
   7.000   0.7941   0.01454   0.00749  -0.0025  0.0726  1.0000  -3.1352   0.0000   0.2457
   7.500   0.8345   0.01545   0.00838   0.0002  0.0617  1.0000  -3.4520   0.0000   0.2418
   8.000   0.8661   0.01756   0.01068   0.0045  0.0511  1.0000  -3.7069   0.0000   0.2364
   8.500   0.9083   0.01843   0.01166   0.0068  0.0476  1.0000  -4.0433   0.0000   0.2336
   9.000   0.9499   0.01940   0.01268   0.0090  0.0424  1.0000  -4.3911   0.0000   0.2310
   9.500   0.9857   0.02118   0.01450   0.0118  0.0371  1.0000  -4.6997   0.0000   0.2279
  10.000   1.0108   0.02530   0.01903   0.0158  0.0336  1.0000  -4.8805   0.0000   0.2237
  10.500   1.0473   0.02704   0.02102   0.0182  0.0324  1.0000  -5.1943   0.0000   0.2213
  11.000   1.0781   0.02934   0.02358   0.0211  0.0309  1.0000  -5.4753   0.0000   0.2186
  11.500   1.1025   0.03197   0.02648   0.0244  0.0293  1.0000  -5.7228   0.0000   0.2153
  12.000   1.1157   0.03472   0.02948   0.0287  0.0277  1.0000  -5.9693   0.0000   0.2109
  12.500   1.1220   0.03784   0.03282   0.0327  0.0263  1.0000  -6.2131   0.0000   0.2068
  13.000   1.1212   0.04197   0.03718   0.0352  0.0253  1.0000  -6.4087   0.0000   0.2037
  13.500   1.1095   0.04804   0.04354   0.0355  0.0246  1.0000  -6.5121   0.0000   0.2021
  14.000   1.0848   0.05680   0.05263   0.0327  0.0241  1.0000  -6.4981   0.0000   0.2029
  14.500   1.0452   0.06958   0.06580   0.0254  0.0240  1.0000  -6.3247   0.0000   0.2076
  15.000   0.6960   0.16546   0.16245  -0.0258  0.0391  1.0000  -2.1425   0.0000   0.2714


