XFLR5 v6.06

 Calculated polar for: hsfoil

 1 1 Reynolds number fixed          Mach number fixed         

 xtrf =   1.000 (top)        1.000 (bottom)
 Mach =   0.000     Re =     0.250 e 6     Ncrit =   9.000

  alpha     CL        CD       CDp       Cm    Top Xtr Bot Xtr   Cpmin    Chinge    XCp    
 ------- -------- --------- --------- -------- ------- ------- -------- --------- ---------
 -15.000  -0.6757   0.17364   0.17008   0.0228  1.0000  0.0516  -1.9552   0.0000   0.2685
 -14.500  -0.6704   0.16381   0.16025   0.0189  1.0000  0.0517  -2.0029   0.0000   0.2633
 -14.000  -0.6684   0.15305   0.14951   0.0148  1.0000  0.0517  -2.0796   0.0000   0.2577
 -13.500  -0.8556   0.08939   0.08571  -0.0152  1.0000  0.0342  -4.3304   0.0000   0.2161
 -13.000  -0.9268   0.06916   0.06509  -0.0289  1.0000  0.0336  -4.8085   0.0000   0.2037
 -12.500  -0.9745   0.05696   0.05249  -0.0349  1.0000  0.0336  -5.0109   0.0000   0.2001
 -12.000  -0.9945   0.05075   0.04594  -0.0348  1.0000  0.0340  -4.9733   0.0000   0.2018
 -11.000  -1.0543   0.03438   0.02834  -0.0236  1.0000  0.0362  -5.2058   0.0000   0.2158
 -10.500  -1.0355   0.03013   0.02377  -0.0200  1.0000  0.0385  -5.0294   0.0000   0.2195
 -10.000  -1.0045   0.02766   0.02106  -0.0172  1.0000  0.0412  -4.7592   0.0000   0.2223
  -9.500  -0.9691   0.02565   0.01888  -0.0146  1.0000  0.0449  -4.4689   0.0000   0.2249
  -9.000  -0.9296   0.02430   0.01737  -0.0124  1.0000  0.0496  -4.1532   0.0000   0.2273
  -8.500  -0.8912   0.02212   0.01493  -0.0097  1.0000  0.0531  -3.8772   0.0000   0.2302
  -8.000  -0.8599   0.01896   0.01162  -0.0059  1.0000  0.0627  -3.6519   0.0000   0.2347
  -7.500  -0.8202   0.01778   0.01032  -0.0032  1.0000  0.0716  -3.3420   0.0000   0.2383
  -7.000  -0.7805   0.01660   0.00902  -0.0003  1.0000  0.0816  -3.0452   0.0000   0.2422
  -6.500  -0.7439   0.01518   0.00769   0.0030  1.0000  0.1042  -2.7942   0.0000   0.2471
  -6.000  -0.7054   0.01399   0.00660   0.0061  1.0000  0.1341  -2.5647   0.0000   0.2521
  -5.500  -0.6653   0.01303   0.00586   0.0087  1.0000  0.1807  -2.3247   0.0000   0.2570
  -5.000  -0.6240   0.01220   0.00524   0.0111  1.0000  0.2428  -2.0824   0.0000   0.2621
  -4.500  -0.5814   0.01152   0.00486   0.0132  1.0000  0.3095  -1.8452   0.0000   0.2674
  -4.000  -0.5374   0.01096   0.00461   0.0150  1.0000  0.3804  -1.6256   0.0000   0.2730
  -3.500  -0.4913   0.01061   0.00448   0.0164  1.0000  0.4452  -1.4334   0.0000   0.2788
  -3.000  -0.4295   0.01021   0.00438   0.0146  0.9949  0.5210  -1.2174   0.0000   0.2798
  -2.500  -0.3459   0.00989   0.00436   0.0087  0.9833  0.5981  -1.0065   0.0000   0.2711
  -2.000  -0.2751   0.00952   0.00426   0.0059  0.9666  0.6667  -0.8374   0.0000   0.2676
  -1.500  -0.1932   0.00920   0.00417   0.0011  0.9517  0.7306  -0.6851   0.0000   0.2518
  -1.000  -0.1237   0.00896   0.00415  -0.0007  0.9334  0.7874  -0.5728   0.0000   0.2406
   0.000   0.0000   0.00867   0.00405  -0.0000  0.8741  0.8741  -0.4172   0.0000   0.5608
   0.500   0.0580   0.00873   0.00406   0.0011  0.8357  0.9076  -0.4854   0.0000   0.2263
   1.000   0.1237   0.00896   0.00415   0.0007  0.7874  0.9335  -0.5728   0.0000   0.2406
   1.500   0.1932   0.00920   0.00417  -0.0011  0.7306  0.9518  -0.6851   0.0000   0.2518
   2.000   0.2751   0.00952   0.00426  -0.0059  0.6668  0.9667  -0.8373   0.0000   0.2676
   2.500   0.3460   0.00989   0.00435  -0.0087  0.5981  0.9833  -1.0065   0.0000   0.2711
   3.000   0.4295   0.01021   0.00438  -0.0146  0.5210  0.9950  -1.2174   0.0000   0.2798
   3.500   0.4910   0.01060   0.00447  -0.0164  0.4453  1.0000  -1.4330   0.0000   0.2788
   4.000   0.5372   0.01096   0.00460  -0.0149  0.3805  1.0000  -1.6252   0.0000   0.2729
   4.500   0.5811   0.01152   0.00485  -0.0131  0.3097  1.0000  -1.8446   0.0000   0.2673
   5.000   0.6238   0.01220   0.00524  -0.0111  0.2429  1.0000  -2.0820   0.0000   0.2620
   5.500   0.6651   0.01303   0.00585  -0.0087  0.1808  1.0000  -2.3242   0.0000   0.2570
   6.000   0.7052   0.01398   0.00660  -0.0060  0.1342  1.0000  -2.5643   0.0000   0.2521
   6.500   0.7437   0.01517   0.00768  -0.0030  0.1043  1.0000  -2.7938   0.0000   0.2471
   7.000   0.7804   0.01660   0.00901   0.0003  0.0816  1.0000  -3.0450   0.0000   0.2422
   7.500   0.8202   0.01778   0.01032   0.0032  0.0717  1.0000  -3.3418   0.0000   0.2382
   8.000   0.8599   0.01896   0.01162   0.0059  0.0627  1.0000  -3.6519   0.0000   0.2347
   8.500   0.8913   0.02212   0.01493   0.0097  0.0531  1.0000  -3.8773   0.0000   0.2302
   9.000   0.9298   0.02430   0.01737   0.0123  0.0496  1.0000  -4.1538   0.0000   0.2273
   9.500   0.9693   0.02565   0.01888   0.0146  0.0449  1.0000  -4.4699   0.0000   0.2250
  10.000   1.0049   0.02766   0.02106   0.0171  0.0411  1.0000  -4.7605   0.0000   0.2224
  10.500   1.0360   0.03014   0.02377   0.0199  0.0385  1.0000  -5.0311   0.0000   0.2196
  11.000   1.0549   0.03441   0.02838   0.0235  0.0362  1.0000  -5.2068   0.0000   0.2159
  11.500   1.0372   0.04261   0.03725   0.0294  0.0345  1.0000  -5.1260   0.0000   0.2093
  12.000   0.9968   0.05070   0.04588   0.0345  0.0339  1.0000  -4.9846   0.0000   0.2022
  12.500   0.9771   0.05694   0.05247   0.0346  0.0336  1.0000  -5.0222   0.0000   0.2005
  13.000   0.9299   0.06914   0.06507   0.0284  0.0336  1.0000  -4.8221   0.0000   0.2043
  14.000   0.6884   0.14752   0.14398  -0.0172  0.0452  1.0000  -2.2259   0.0000   0.2604
  14.500   0.6736   0.16424   0.16069  -0.0196  0.0516  1.0000  -2.0067   0.0000   0.2642
  15.000   0.6790   0.17412   0.17056  -0.0235  0.0516  1.0000  -1.9595   0.0000   0.2693


