XFLR5 v6.06

 Calculated polar for: hsfoil

 1 1 Reynolds number fixed          Mach number fixed         

 xtrf =   1.000 (top)        1.000 (bottom)
 Mach =   0.000     Re =     0.300 e 6     Ncrit =   9.000

  alpha     CL        CD       CDp       Cm    Top Xtr Bot Xtr   Cpmin    Chinge    XCp    
 ------- -------- --------- --------- -------- ------- ------- -------- --------- ---------
 -15.000  -0.6750   0.17243   0.16918   0.0244  1.0000  0.0508  -1.9263   0.0000   0.2708
 -14.500  -0.6679   0.16385   0.16061   0.0203  1.0000  0.0513  -1.9533   0.0000   0.2656
 -14.000  -0.6648   0.15384   0.15060   0.0163  1.0000  0.0514  -2.0142   0.0000   0.2600
 -13.500  -0.9965   0.06409   0.06022  -0.0303  1.0000  0.0286  -5.5308   0.0000   0.2035
 -13.000  -1.0393   0.05247   0.04818  -0.0356  1.0000  0.0288  -5.7017   0.0000   0.2008
 -12.500  -1.0636   0.04516   0.04048  -0.0354  1.0000  0.0295  -5.7055   0.0000   0.2027
 -12.000  -1.0745   0.04015   0.03511  -0.0319  1.0000  0.0306  -5.6051   0.0000   0.2071
 -11.500  -1.0734   0.03650   0.03112  -0.0270  1.0000  0.0318  -5.4495   0.0000   0.2124
 -11.000  -1.0547   0.03361   0.02791  -0.0233  1.0000  0.0330  -5.2399   0.0000   0.2161
 -10.500  -1.0256   0.03155   0.02559  -0.0204  1.0000  0.0339  -4.9651   0.0000   0.2189
 -10.000  -1.0125   0.02500   0.01838  -0.0159  1.0000  0.0369  -4.8993   0.0000   0.2237
  -9.500  -0.9801   0.02252   0.01578  -0.0129  1.0000  0.0408  -4.6251   0.0000   0.2268
  -9.000  -0.9403   0.02134   0.01454  -0.0107  1.0000  0.0457  -4.2855   0.0000   0.2292
  -8.500  -0.8988   0.02024   0.01331  -0.0085  1.0000  0.0501  -3.9554   0.0000   0.2317
  -8.000  -0.8631   0.01811   0.01095  -0.0051  1.0000  0.0552  -3.6867   0.0000   0.2357
  -7.500  -0.8287   0.01635   0.00914  -0.0015  1.0000  0.0665  -3.4075   0.0000   0.2403
  -7.000  -0.7869   0.01556   0.00828   0.0010  1.0000  0.0755  -3.0881   0.0000   0.2439
  -6.500  -0.7502   0.01419   0.00696   0.0044  1.0000  0.0967  -2.8306   0.0000   0.2490
  -6.000  -0.7094   0.01334   0.00612   0.0071  1.0000  0.1205  -2.5852   0.0000   0.2536
  -5.500  -0.6690   0.01242   0.00542   0.0097  1.0000  0.1637  -2.3427   0.0000   0.2585
  -5.000  -0.6273   0.01161   0.00489   0.0120  1.0000  0.2232  -2.0968   0.0000   0.2634
  -4.500  -0.5837   0.01099   0.00452   0.0139  1.0000  0.2851  -1.8563   0.0000   0.2685
  -4.000  -0.5386   0.01048   0.00430   0.0154  1.0000  0.3532  -1.6314   0.0000   0.2737
  -3.500  -0.4770   0.01000   0.00412   0.0136  0.9956  0.4253  -1.4094   0.0000   0.2739
  -3.000  -0.3960   0.00956   0.00395   0.0080  0.9850  0.5050  -1.1611   0.0000   0.2659
  -2.500  -0.3245   0.00913   0.00380   0.0048  0.9726  0.5763  -0.9767   0.0000   0.2606
  -2.000  -0.2492   0.00871   0.00366   0.0010  0.9575  0.6427  -0.8077   0.0000   0.2500
  -1.500  -0.1687   0.00834   0.00352  -0.0035  0.9442  0.7071  -0.6623   0.0000   0.2248
  -1.000  -0.1143   0.00802   0.00339  -0.0022  0.9186  0.7620  -0.5652   0.0000   0.2266
  -0.500  -0.0546   0.00779   0.00329  -0.0018  0.8909  0.8109  -0.4833   0.0000   0.2134
   0.000  -0.0000   0.00769   0.00322   0.0000  0.8533  0.8533  -0.4176   0.0000   0.5293
   1.000   0.1143   0.00802   0.00339   0.0022  0.7621  0.9187  -0.5652   0.0000   0.2265
   1.500   0.1687   0.00834   0.00352   0.0035  0.7071  0.9442  -0.6623   0.0000   0.2248
   2.000   0.2492   0.00871   0.00366  -0.0010  0.6428  0.9575  -0.8077   0.0000   0.2500
   2.500   0.3245   0.00913   0.00380  -0.0048  0.5763  0.9727  -0.9766   0.0000   0.2606
   3.000   0.3960   0.00956   0.00395  -0.0080  0.5050  0.9850  -1.1612   0.0000   0.2659
   3.500   0.4770   0.01000   0.00412  -0.0136  0.4253  0.9956  -1.4095   0.0000   0.2740
   4.000   0.5383   0.01047   0.00429  -0.0154  0.3533  1.0000  -1.6310   0.0000   0.2736
   4.500   0.5835   0.01099   0.00452  -0.0138  0.2852  1.0000  -1.8558   0.0000   0.2684
   5.000   0.6271   0.01161   0.00489  -0.0119  0.2233  1.0000  -2.0962   0.0000   0.2634
   5.500   0.6688   0.01241   0.00542  -0.0097  0.1638  1.0000  -2.3422   0.0000   0.2584
   6.000   0.7092   0.01334   0.00612  -0.0071  0.1206  1.0000  -2.5847   0.0000   0.2535
   6.500   0.7501   0.01419   0.00696  -0.0044  0.0968  1.0000  -2.8302   0.0000   0.2489
   7.000   0.7868   0.01556   0.00828  -0.0010  0.0755  1.0000  -3.0877   0.0000   0.2439
   7.500   0.8286   0.01635   0.00914   0.0015  0.0665  1.0000  -3.4071   0.0000   0.2403
   8.000   0.8630   0.01811   0.01095   0.0051  0.0553  1.0000  -3.6867   0.0000   0.2357
   8.500   0.8988   0.02023   0.01330   0.0084  0.0501  1.0000  -3.9556   0.0000   0.2317
   9.000   0.9404   0.02134   0.01454   0.0107  0.0457  1.0000  -4.2860   0.0000   0.2292
   9.500   0.9803   0.02252   0.01578   0.0129  0.0408  1.0000  -4.6260   0.0000   0.2268
  10.000   1.0128   0.02501   0.01839   0.0158  0.0369  1.0000  -4.9002   0.0000   0.2237
  10.500   1.0262   0.03155   0.02558   0.0203  0.0339  1.0000  -4.9672   0.0000   0.2190
  11.000   1.0555   0.03361   0.02792   0.0232  0.0330  1.0000  -5.2425   0.0000   0.2162
  11.500   1.0745   0.03651   0.03114   0.0268  0.0318  1.0000  -5.4529   0.0000   0.2126
  12.000   1.0760   0.04018   0.03514   0.0317  0.0305  1.0000  -5.6109   0.0000   0.2074
  12.500   1.0654   0.04520   0.04053   0.0350  0.0295  1.0000  -5.7125   0.0000   0.2031
  13.000   1.0414   0.05254   0.04825   0.0351  0.0288  1.0000  -5.7093   0.0000   0.2013
  13.500   0.9987   0.06424   0.06038   0.0297  0.0286  1.0000  -5.5367   0.0000   0.2041
  14.000   0.9077   0.08835   0.08499   0.0130  0.0296  1.0000  -4.8834   0.0000   0.2186
  14.500   0.7094   0.15033   0.14710  -0.0187  0.0380  1.0000  -2.4653   0.0000   0.2608
  15.000   0.6785   0.17282   0.16957  -0.0251  0.0508  1.0000  -1.9322   0.0000   0.2717


