XFLR5 v6.06

 Calculated polar for: hsfoil

 1 1 Reynolds number fixed          Mach number fixed         

 xtrf =   1.000 (top)        1.000 (bottom)
 Mach =   0.000     Re =     0.550 e 6     Ncrit =   9.000

  alpha     CL        CD       CDp       Cm    Top Xtr Bot Xtr   Cpmin    Chinge    XCp    
 ------- -------- --------- --------- -------- ------- ------- -------- --------- ---------
 -15.000  -1.1766   0.05547   0.05169  -0.0302  1.0000  0.0174  -7.8022   0.0000   0.2054
 -14.500  -1.1965   0.04657   0.04246  -0.0337  1.0000  0.0177  -7.7753   0.0000   0.2040
 -14.000  -1.2065   0.04003   0.03562  -0.0345  1.0000  0.0181  -7.6499   0.0000   0.2045
 -13.500  -1.2056   0.03539   0.03074  -0.0335  1.0000  0.0188  -7.4280   0.0000   0.2063
 -13.000  -1.1951   0.03228   0.02738  -0.0312  1.0000  0.0198  -7.1278   0.0000   0.2088
 -12.500  -1.1780   0.03003   0.02496  -0.0282  1.0000  0.0208  -6.7799   0.0000   0.2119
 -12.000  -1.1555   0.02839   0.02317  -0.0247  1.0000  0.0215  -6.4018   0.0000   0.2153
 -11.500  -1.1380   0.02561   0.02010  -0.0203  1.0000  0.0225  -6.1421   0.0000   0.2194
 -11.000  -1.1233   0.02178   0.01591  -0.0154  1.0000  0.0248  -5.9741   0.0000   0.2243
 -10.500  -1.0892   0.02006   0.01408  -0.0126  1.0000  0.0267  -5.6354   0.0000   0.2271
 -10.000  -1.0501   0.01877   0.01270  -0.0103  1.0000  0.0287  -5.2695   0.0000   0.2295
  -9.500  -1.0092   0.01762   0.01143  -0.0081  1.0000  0.0312  -4.9088   0.0000   0.2319
  -9.000  -0.9658   0.01682   0.01055  -0.0061  1.0000  0.0334  -4.5331   0.0000   0.2342
  -8.500  -0.9305   0.01529   0.00883  -0.0026  1.0000  0.0375  -4.2283   0.0000   0.2382
  -8.000  -0.8921   0.01419   0.00778   0.0004  1.0000  0.0450  -3.8967   0.0000   0.2420
  -7.500  -0.8495   0.01357   0.00711   0.0028  1.0000  0.0502  -3.5459   0.0000   0.2454
  -7.000  -0.8094   0.01273   0.00614   0.0057  1.0000  0.0583  -3.2257   0.0000   0.2497
  -6.500  -0.7689   0.01191   0.00544   0.0085  1.0000  0.0735  -2.9200   0.0000   0.2541
  -6.000  -0.7263   0.01131   0.00487   0.0109  1.0000  0.0925  -2.6583   0.0000   0.2585
  -5.500  -0.6832   0.01072   0.00441   0.0131  1.0000  0.1201  -2.3990   0.0000   0.2631
  -4.500  -0.5434   0.00929   0.00351   0.0061  0.9887  0.2325  -1.7724   0.0000   0.2558
  -4.000  -0.4676   0.00863   0.00319   0.0014  0.9831  0.3052  -1.5014   0.0000   0.2479
  -3.500  -0.4037   0.00807   0.00286  -0.0004  0.9737  0.3724  -1.2774   0.0000   0.2441
  -3.000  -0.3358   0.00754   0.00260  -0.0029  0.9608  0.4374  -1.0742   0.0000   0.2365
  -2.500  -0.2657   0.00710   0.00236  -0.0058  0.9462  0.4987  -0.8951   0.0000   0.2235
  -2.000  -0.2133   0.00668   0.00218  -0.0047  0.9242  0.5618  -0.7669   0.0000   0.2236
  -1.500  -0.1571   0.00635   0.00199  -0.0042  0.8956  0.6173  -0.6515   0.0000   0.2190
  -1.000  -0.1043   0.00613   0.00185  -0.0028  0.8592  0.6700  -0.5577   0.0000   0.2183
  -0.500  -0.0520   0.00599   0.00178  -0.0015  0.8192  0.7232  -0.4817   0.0000   0.2174
   0.000  -0.0000   0.00593   0.00175   0.0000  0.7732  0.7732  -0.4182   0.0000   0.5214
   0.500   0.0520   0.00599   0.00178   0.0015  0.7233  0.8192  -0.4817   0.0000   0.2174
   1.000   0.1043   0.00613   0.00185   0.0028  0.6699  0.8592  -0.5577   0.0000   0.2183
   1.500   0.1571   0.00635   0.00199   0.0042  0.6173  0.8956  -0.6515   0.0000   0.2190
   2.000   0.2133   0.00668   0.00218   0.0047  0.5618  0.9242  -0.7669   0.0000   0.2236
   2.500   0.2657   0.00710   0.00236   0.0058  0.4986  0.9462  -0.8951   0.0000   0.2235
   3.000   0.3358   0.00754   0.00259   0.0029  0.4374  0.9608  -1.0742   0.0000   0.2364
   3.500   0.4037   0.00807   0.00286   0.0004  0.3723  0.9737  -1.2773   0.0000   0.2441
   4.000   0.4676   0.00863   0.00319  -0.0014  0.3052  0.9831  -1.5015   0.0000   0.2479
   4.500   0.5434   0.00929   0.00351  -0.0061  0.2325  0.9887  -1.7725   0.0000   0.2558
   5.000   0.6159   0.00995   0.00390  -0.0101  0.1711  0.9955  -2.0842   0.0000   0.2607
   5.500   0.6830   0.01071   0.00441  -0.0130  0.1203  1.0000  -2.3984   0.0000   0.2630
   6.000   0.7261   0.01131   0.00486  -0.0108  0.0925  1.0000  -2.6577   0.0000   0.2585
   6.500   0.7687   0.01190   0.00543  -0.0084  0.0735  1.0000  -2.9194   0.0000   0.2541
   7.000   0.8092   0.01272   0.00614  -0.0057  0.0583  1.0000  -3.2252   0.0000   0.2496
   7.500   0.8494   0.01356   0.00711  -0.0027  0.0502  1.0000  -3.5453   0.0000   0.2454
   8.000   0.8919   0.01419   0.00777  -0.0003  0.0450  1.0000  -3.8962   0.0000   0.2420
   8.500   0.9304   0.01529   0.00883   0.0027  0.0375  1.0000  -4.2281   0.0000   0.2382
   9.000   0.9658   0.01682   0.01054   0.0061  0.0334  1.0000  -4.5333   0.0000   0.2342
   9.500   1.0094   0.01762   0.01142   0.0081  0.0312  1.0000  -4.9093   0.0000   0.2319
  10.000   1.0503   0.01877   0.01270   0.0103  0.0287  1.0000  -5.2705   0.0000   0.2295
  10.500   1.0896   0.02006   0.01408   0.0125  0.0267  1.0000  -5.6370   0.0000   0.2271
  11.000   1.1238   0.02179   0.01592   0.0153  0.0248  1.0000  -5.9760   0.0000   0.2244
  11.500   1.1384   0.02566   0.02016   0.0202  0.0224  1.0000  -6.1413   0.0000   0.2196
  12.000   1.1570   0.02839   0.02316   0.0244  0.0215  1.0000  -6.4094   0.0000   0.2155
  12.500   1.1798   0.03002   0.02495   0.0279  0.0208  1.0000  -6.7895   0.0000   0.2122
  13.000   1.1972   0.03226   0.02736   0.0309  0.0198  1.0000  -7.1393   0.0000   0.2092
  13.500   1.2081   0.03537   0.03072   0.0331  0.0188  1.0000  -7.4417   0.0000   0.2067
  14.000   1.2093   0.04001   0.03561   0.0341  0.0181  1.0000  -7.6646   0.0000   0.2049
  14.500   1.1998   0.04654   0.04244   0.0332  0.0176  1.0000  -7.7930   0.0000   0.2045
  15.000   1.1803   0.05545   0.05166   0.0296  0.0174  1.0000  -7.8220   0.0000   0.2059


