XFLR5 v6.06

 Calculated polar for: hsfoil

 1 1 Reynolds number fixed          Mach number fixed         

 xtrf =   1.000 (top)        1.000 (bottom)
 Mach =   0.000     Re =     0.400 e 6     Ncrit =   9.000

  alpha     CL        CD       CDp       Cm    Top Xtr Bot Xtr   Cpmin    Chinge    XCp    
 ------- -------- --------- --------- -------- ------- ------- -------- --------- ---------
 -15.000  -0.6939   0.16179   0.15896   0.0230  1.0000  0.0333  -2.3198   0.0000   0.2671
 -14.500  -0.9931   0.07720   0.07374  -0.0208  1.0000  0.0221  -5.9133   0.0000   0.2109
 -14.000  -1.0371   0.06293   0.05911  -0.0297  1.0000  0.0221  -6.1411   0.0000   0.2042
 -13.500  -1.0854   0.05021   0.04592  -0.0352  1.0000  0.0223  -6.3651   0.0000   0.2016
 -13.000  -1.1319   0.03986   0.03499  -0.0348  1.0000  0.0230  -6.5523   0.0000   0.2042
 -12.500  -1.1504   0.03353   0.02824  -0.0308  1.0000  0.0243  -6.5136   0.0000   0.2091
 -12.000  -1.1417   0.03060   0.02514  -0.0264  1.0000  0.0258  -6.2425   0.0000   0.2135
 -11.500  -1.1211   0.02860   0.02300  -0.0226  1.0000  0.0273  -5.9350   0.0000   0.2172
 -11.000  -1.0925   0.02655   0.02076  -0.0195  1.0000  0.0290  -5.6382   0.0000   0.2202
 -10.500  -1.0599   0.02450   0.01850  -0.0167  1.0000  0.0307  -5.3354   0.0000   0.2229
 -10.000  -1.0235   0.02273   0.01648  -0.0142  1.0000  0.0324  -5.0184   0.0000   0.2254
  -9.500  -0.9827   0.02152   0.01514  -0.0121  1.0000  0.0338  -4.6695   0.0000   0.2276
  -9.000  -0.9571   0.01818   0.01151  -0.0077  1.0000  0.0395  -4.4654   0.0000   0.2325
  -8.500  -0.9164   0.01717   0.01051  -0.0054  1.0000  0.0450  -4.1136   0.0000   0.2352
  -8.000  -0.8749   0.01630   0.00957  -0.0029  1.0000  0.0497  -3.7734   0.0000   0.2383
  -7.500  -0.8366   0.01511   0.00819   0.0003  1.0000  0.0554  -3.4639   0.0000   0.2424
  -7.000  -0.7998   0.01383   0.00696   0.0036  1.0000  0.0695  -3.1703   0.0000   0.2472
  -6.500  -0.7563   0.01336   0.00643   0.0059  1.0000  0.0772  -2.8574   0.0000   0.2509
  -6.000  -0.7177   0.01226   0.00549   0.0089  1.0000  0.1069  -2.6207   0.0000   0.2560
  -5.500  -0.6759   0.01150   0.00489   0.0113  1.0000  0.1426  -2.3706   0.0000   0.2607
  -5.000  -0.6325   0.01088   0.00442   0.0134  1.0000  0.1876  -2.1182   0.0000   0.2655
  -4.500  -0.5848   0.01022   0.00409   0.0143  0.9993  0.2536  -1.8658   0.0000   0.2692
  -4.000  -0.5096   0.00962   0.00376   0.0098  0.9914  0.3243  -1.5791   0.0000   0.2642
  -3.500  -0.4310   0.00906   0.00350   0.0046  0.9838  0.4032  -1.3253   0.0000   0.2558
  -3.000  -0.3640   0.00852   0.00326   0.0022  0.9731  0.4751  -1.1149   0.0000   0.2514
  -2.500  -0.2911   0.00808   0.00304  -0.0013  0.9597  0.5388  -0.9302   0.0000   0.2410
  -2.000  -0.2169   0.00759   0.00284  -0.0049  0.9459  0.6064  -0.7709   0.0000   0.2230
  -1.500  -0.1631   0.00723   0.00268  -0.0038  0.9229  0.6660  -0.6572   0.0000   0.2223
  -1.000  -0.1044   0.00693   0.00251  -0.0035  0.8951  0.7187  -0.5578   0.0000   0.2118
  -0.500  -0.0518   0.00672   0.00239  -0.0018  0.8578  0.7697  -0.4815   0.0000   0.2103
   0.000  -0.0000   0.00663   0.00236   0.0000  0.8182  0.8182  -0.4180   0.0000   0.3565
   0.500   0.0518   0.00672   0.00239   0.0018  0.7697  0.8578  -0.4815   0.0000   0.2103
   1.000   0.1044   0.00693   0.00251   0.0035  0.7187  0.8951  -0.5578   0.0000   0.2118
   1.500   0.1631   0.00723   0.00268   0.0038  0.6660  0.9229  -0.6572   0.0000   0.2223
   2.000   0.2169   0.00759   0.00284   0.0049  0.6064  0.9459  -0.7709   0.0000   0.2230
   2.500   0.2911   0.00808   0.00304   0.0013  0.5388  0.9597  -0.9302   0.0000   0.2410
   3.000   0.3640   0.00851   0.00326  -0.0022  0.4751  0.9731  -1.1149   0.0000   0.2513
   3.500   0.4310   0.00906   0.00350  -0.0046  0.4032  0.9838  -1.3254   0.0000   0.2559
   4.000   0.5096   0.00962   0.00376  -0.0098  0.3243  0.9915  -1.5792   0.0000   0.2642
   4.500   0.5848   0.01021   0.00408  -0.0143  0.2536  0.9994  -1.8659   0.0000   0.2692
   5.000   0.6323   0.01087   0.00442  -0.0133  0.1876  1.0000  -2.1175   0.0000   0.2654
   5.500   0.6756   0.01150   0.00489  -0.0113  0.1426  1.0000  -2.3700   0.0000   0.2607
   6.000   0.7174   0.01226   0.00548  -0.0089  0.1069  1.0000  -2.6201   0.0000   0.2559
   6.500   0.7561   0.01335   0.00643  -0.0059  0.0772  1.0000  -2.8569   0.0000   0.2508
   7.000   0.7997   0.01383   0.00696  -0.0036  0.0695  1.0000  -3.1697   0.0000   0.2471
   7.500   0.8365   0.01510   0.00819  -0.0003  0.0554  1.0000  -3.4636   0.0000   0.2424
   8.000   0.8748   0.01630   0.00957   0.0029  0.0497  1.0000  -3.7732   0.0000   0.2383
   8.500   0.9164   0.01717   0.01051   0.0054  0.0450  1.0000  -4.1136   0.0000   0.2352
   9.000   0.9571   0.01818   0.01151   0.0077  0.0395  1.0000  -4.4657   0.0000   0.2325
   9.500   0.9830   0.02152   0.01514   0.0121  0.0338  1.0000  -4.6704   0.0000   0.2277
  10.000   1.0239   0.02273   0.01648   0.0142  0.0324  1.0000  -5.0197   0.0000   0.2255
  10.500   1.0604   0.02450   0.01850   0.0167  0.0307  1.0000  -5.3371   0.0000   0.2230
  11.000   1.0931   0.02655   0.02077   0.0194  0.0290  1.0000  -5.6406   0.0000   0.2203
  11.500   1.1220   0.02860   0.02300   0.0224  0.0273  1.0000  -5.9385   0.0000   0.2174
  12.000   1.1431   0.03061   0.02514   0.0262  0.0258  1.0000  -6.2491   0.0000   0.2137
  12.500   1.1519   0.03356   0.02827   0.0305  0.0243  1.0000  -6.5199   0.0000   0.2094
  13.000   1.1328   0.04002   0.03516   0.0345  0.0229  1.0000  -6.5518   0.0000   0.2045
  13.500   1.0858   0.05052   0.04625   0.0347  0.0222  1.0000  -6.3583   0.0000   0.2020
  14.000   1.0376   0.06336   0.05957   0.0289  0.0221  1.0000  -6.1325   0.0000   0.2050
  14.500   0.9939   0.07776   0.07432   0.0198  0.0221  1.0000  -5.9030   0.0000   0.2119
  15.000   0.9519   0.09411   0.09095   0.0090  0.0223  1.0000  -5.6294   0.0000   0.2214


