XFLR5 v6.06

 Calculated polar for: hsfoil

 1 1 Reynolds number fixed          Mach number fixed         

 xtrf =   1.000 (top)        1.000 (bottom)
 Mach =   0.000     Re =     0.100 e 6     Ncrit =   9.000

  alpha     CL        CD       CDp       Cm    Top Xtr Bot Xtr   Cpmin    Chinge    XCp    
 ------- -------- --------- --------- -------- ------- ------- -------- --------- ---------
 -15.000  -0.6792   0.18822   0.18267   0.0244  1.0000  0.1090  -1.7125   0.0000   0.2716
 -14.500  -0.6751   0.18182   0.17629   0.0200  1.0000  0.1100  -1.7496   0.0000   0.2658
 -14.000  -0.6713   0.17322   0.16770   0.0159  1.0000  0.1103  -1.7899   0.0000   0.2605
 -13.500  -0.6443   0.15615   0.15056   0.0194  1.0000  0.1202  -1.7030   0.0000   0.2671
 -13.000  -0.6266   0.15056   0.14495   0.0191  1.0000  0.1338  -1.6413   0.0000   0.2680
 -12.500  -0.6489   0.14797   0.14245   0.0109  1.0000  0.1469  -1.7927   0.0000   0.2551
 -11.500  -0.6709   0.11099   0.10546  -0.0002  1.0000  0.0981  -2.2717   0.0000   0.2382
 -10.500  -0.8850   0.06192   0.05581  -0.0286  1.0000  0.0787  -3.6229   0.0000   0.2072
 -10.000  -0.9078   0.05349   0.04686  -0.0249  1.0000  0.0787  -3.7029   0.0000   0.2127
  -9.500  -0.9191   0.04411   0.03676  -0.0205  1.0000  0.0804  -3.7640   0.0000   0.2182
  -9.000  -0.9048   0.03725   0.02938  -0.0168  1.0000  0.0852  -3.6856   0.0000   0.2224
  -8.500  -0.8741   0.03343   0.02527  -0.0138  1.0000  0.0925  -3.4927   0.0000   0.2256
  -8.000  -0.8386   0.03108   0.02261  -0.0109  1.0000  0.1050  -3.2566   0.0000   0.2289
  -7.500  -0.8027   0.02660   0.01759  -0.0080  1.0000  0.1168  -3.0702   0.0000   0.2324
  -7.000  -0.7637   0.02399   0.01496  -0.0052  1.0000  0.1364  -2.8263   0.0000   0.2359
  -6.500  -0.7255   0.02162   0.01261  -0.0022  1.0000  0.1666  -2.6252   0.0000   0.2401
  -6.000  -0.6877   0.01959   0.01071   0.0010  1.0000  0.2096  -2.4301   0.0000   0.2450
  -5.500  -0.6509   0.01811   0.00944   0.0044  1.0000  0.2765  -2.2207   0.0000   0.2507
  -5.000  -0.6146   0.01680   0.00847   0.0079  1.0000  0.3582  -2.0060   0.0000   0.2572
  -4.500  -0.5768   0.01587   0.00796   0.0113  1.0000  0.4409  -1.7876   0.0000   0.2645
  -4.000  -0.5366   0.01518   0.00763   0.0146  1.0000  0.5169  -1.5913   0.0000   0.2725
  -3.500  -0.4955   0.01472   0.00741   0.0179  1.0000  0.5922  -1.4114   0.0000   0.2817
  -3.000  -0.4539   0.01443   0.00734   0.0214  1.0000  0.6638  -1.2339   0.0000   0.2930
  -2.500  -0.4123   0.01432   0.00748   0.0251  1.0000  0.7333  -1.0829   0.0000   0.3072
  -2.000  -0.3721   0.01447   0.00781   0.0292  1.0000  0.8019  -0.9468   0.0000   0.3252
  -1.500  -0.3277   0.01491   0.00836   0.0327  1.0000  0.8668  -0.8230   0.0000   0.3469
  -1.000  -0.2539   0.01572   0.00910   0.0300  1.0000  0.9257  -0.6841   0.0000   0.3656
  -0.500  -0.1340   0.01652   0.00980   0.0170  1.0000  0.9662  -0.5360   0.0000   0.3744
   0.000   0.0000   0.01693   0.01019  -0.0000  0.9971  0.9971  -0.4126   0.0000   0.4068
   0.500   0.1340   0.01651   0.00980  -0.0170  0.9662  1.0000  -0.5359   0.0000   0.3744
   1.000   0.2538   0.01572   0.00910  -0.0300  0.9257  1.0000  -0.6840   0.0000   0.3656
   1.500   0.3275   0.01491   0.00835  -0.0327  0.8668  1.0000  -0.8229   0.0000   0.3469
   2.000   0.3719   0.01447   0.00780  -0.0292  0.8019  1.0000  -0.9465   0.0000   0.3252
   2.500   0.4122   0.01431   0.00748  -0.0251  0.7334  1.0000  -1.0827   0.0000   0.3071
   3.000   0.4537   0.01442   0.00734  -0.0213  0.6639  1.0000  -1.2336   0.0000   0.2930
   3.500   0.4954   0.01472   0.00741  -0.0179  0.5923  1.0000  -1.4111   0.0000   0.2817
   4.000   0.5365   0.01518   0.00762  -0.0146  0.5170  1.0000  -1.5909   0.0000   0.2725
   4.500   0.5766   0.01587   0.00796  -0.0113  0.4410  1.0000  -1.7872   0.0000   0.2644
   5.000   0.6144   0.01680   0.00846  -0.0078  0.3583  1.0000  -2.0056   0.0000   0.2572
   5.500   0.6508   0.01811   0.00943  -0.0043  0.2767  1.0000  -2.2204   0.0000   0.2506
   6.000   0.6876   0.01958   0.01071  -0.0010  0.2096  1.0000  -2.4299   0.0000   0.2450
   6.500   0.7254   0.02162   0.01260   0.0023  0.1666  1.0000  -2.6250   0.0000   0.2400
   7.000   0.7636   0.02399   0.01496   0.0052  0.1364  1.0000  -2.8261   0.0000   0.2359
   7.500   0.8027   0.02660   0.01758   0.0080  0.1168  1.0000  -3.0702   0.0000   0.2324
   8.000   0.8386   0.03107   0.02261   0.0109  0.1050  1.0000  -3.2567   0.0000   0.2289
   8.500   0.8742   0.03343   0.02527   0.0138  0.0925  1.0000  -3.4930   0.0000   0.2256
   9.000   0.9050   0.03725   0.02938   0.0168  0.0852  1.0000  -3.6861   0.0000   0.2224
   9.500   0.9193   0.04413   0.03678   0.0204  0.0804  1.0000  -3.7642   0.0000   0.2183
  10.000   0.9082   0.05354   0.04691   0.0248  0.0787  1.0000  -3.7029   0.0000   0.2128
  10.500   0.8856   0.06199   0.05589   0.0285  0.0786  1.0000  -3.6229   0.0000   0.2074
  11.000   0.8497   0.06934   0.06358   0.0310  0.0794  1.0000  -3.5233   0.0000   0.2024
  11.500   0.6730   0.11126   0.10573  -0.0003  0.0983  1.0000  -2.2710   0.0000   0.2390
  12.000   0.6555   0.14029   0.13480  -0.0066  0.1479  1.0000  -1.8769   0.0000   0.2489
  12.500   0.6515   0.14805   0.14253  -0.0115  0.1468  1.0000  -1.7943   0.0000   0.2560
  13.000   0.6297   0.15078   0.14517  -0.0197  0.1333  1.0000  -1.6450   0.0000   0.2689
  13.500   0.6504   0.15623   0.15065  -0.0195  0.1193  1.0000  -1.7249   0.0000   0.2670
  14.000   0.6743   0.17359   0.16807  -0.0165  0.1103  1.0000  -1.7914   0.0000   0.2613
  14.500   0.6780   0.18220   0.17666  -0.0206  0.1100  1.0000  -1.7530   0.0000   0.2666
  15.000   0.6821   0.18852   0.18297  -0.0251  0.1090  1.0000  -1.7156   0.0000   0.2724


