XFLR5 v6.06

 Calculated polar for: fab_f_d

 1 1 Reynolds number fixed          Mach number fixed         

 xtrf =   1.000 (top)        1.000 (bottom)
 Mach =   0.000     Re =     0.600 e 6     Ncrit =   9.000

  alpha     CL        CD       CDp       Cm    Top Xtr Bot Xtr   Cpmin    Chinge    XCp    
 ------- -------- --------- --------- -------- ------- ------- -------- --------- ---------
  -8.000  -0.1359   0.01375   0.00793  -0.1708  0.8432  0.0291  -4.3193   0.0000  -1.0538
  -7.500  -0.0815   0.01312   0.00724  -0.1712  0.8379  0.0327  -3.8857   0.0000  -1.9238
  -7.000  -0.0256   0.01253   0.00653  -0.1717  0.8324  0.0370  -3.4686   0.0000  -6.6557
  -6.500   0.0308   0.01196   0.00588  -0.1723  0.8271  0.0417  -3.0712   0.0000   6.0133
  -6.000   0.0860   0.01145   0.00533  -0.1725  0.8215  0.0473  -2.7149   0.0000   2.3076
  -5.500   0.1430   0.01096   0.00480  -0.1731  0.8166  0.0544  -2.3707   0.0000   1.4890
  -5.000   0.1995   0.01055   0.00436  -0.1735  0.8112  0.0633  -2.0594   0.0000   1.1383
  -4.500   0.2554   0.01015   0.00397  -0.1738  0.8050  0.0739  -1.7667   0.0000   0.9433
  -4.000   0.3135   0.00986   0.00364  -0.1744  0.7995  0.0875  -1.4937   0.0000   0.8155
  -3.500   0.3690   0.00953   0.00340  -0.1746  0.7938  0.1068  -1.2520   0.0000   0.7299
  -3.000   0.4261   0.00922   0.00316  -0.1750  0.7872  0.1390  -1.0341   0.0000   0.6656
  -2.500   0.4827   0.00899   0.00304  -0.1754  0.7812  0.1804  -0.8386   0.0000   0.6167
  -2.000   0.5390   0.00872   0.00290  -0.1757  0.7741  0.2310  -0.7759   0.0000   0.5781
  -1.500   0.5963   0.00848   0.00282  -0.1762  0.7676  0.3030  -0.8138   0.0000   0.5466
  -1.000   0.6522   0.00814   0.00276  -0.1765  0.7594  0.4037  -0.8518   0.0000   0.5208
  -0.500   0.7090   0.00774   0.00280  -0.1770  0.7520  0.5715  -0.8959   0.0000   0.4991
   0.000   0.7632   0.00750   0.00290  -0.1766  0.7431  0.7097  -0.9390   0.0000   0.4801
   0.500   0.8165   0.00751   0.00300  -0.1759  0.7338  0.7696  -0.9868   0.0000   0.4634
   1.000   0.8696   0.00752   0.00303  -0.1751  0.7237  0.8093  -1.0375   0.0000   0.4487
   1.500   0.9214   0.00753   0.00308  -0.1741  0.7126  0.8352  -1.0918   0.0000   0.4356
   2.000   0.9717   0.00756   0.00314  -0.1728  0.6992  0.8609  -1.1516   0.0000   0.4238
   2.500   1.0203   0.00760   0.00320  -0.1712  0.6839  0.8852  -1.2118   0.0000   0.4131
   3.000   1.0651   0.00764   0.00328  -0.1687  0.6680  0.9151  -1.2699   0.0000   0.4030
   3.500   1.1056   0.00763   0.00332  -0.1653  0.6489  0.9649  -1.3340   0.0000   0.3935
   4.000   1.1590   0.00789   0.00348  -0.1651  0.6244  0.9964  -1.4108   0.0000   0.3858
   4.500   1.2080   0.00826   0.00376  -0.1641  0.5953  0.9964  -1.4862   0.0000   0.3785
   5.000   1.2538   0.00874   0.00412  -0.1624  0.5652  0.9964  -1.5748   0.0000   0.3715
   5.500   1.2957   0.00932   0.00457  -0.1600  0.5289  0.9964  -1.6642   0.0000   0.3647
   6.000   1.3328   0.01002   0.00512  -0.1566  0.4938  0.9964  -1.7610   0.0000   0.3581
   6.500   1.3678   0.01075   0.00575  -0.1530  0.4605  0.9964  -1.8637   0.0000   0.3517
   7.000   1.4006   0.01161   0.00649  -0.1491  0.4259  0.9964  -1.9759   0.0000   0.3456
   7.500   1.4309   0.01260   0.00737  -0.1449  0.3920  0.9964  -2.1547   0.0000   0.3397
   8.000   1.4598   0.01372   0.00839  -0.1408  0.3610  0.9964  -2.4165   0.0000   0.3340
   8.500   1.4858   0.01505   0.00961  -0.1365  0.3273  0.9964  -2.7955   0.0000   0.3286
   9.000   1.5103   0.01658   0.01103  -0.1322  0.2932  0.9964  -3.1853   0.0000   0.3235
   9.500   1.5303   0.01847   0.01277  -0.1277  0.2570  0.9964  -3.5698   0.0000   0.3185
  10.000   1.5494   0.02054   0.01469  -0.1233  0.2202  0.9964  -3.9645   0.0000   0.3138


