XFLR5 v6.06

 Calculated polar for: fab_d_f

 1 1 Reynolds number fixed          Mach number fixed         

 xtrf =   1.000 (top)        1.000 (bottom)
 Mach =   0.000     Re =     0.050 e 6     Ncrit =   9.000

  alpha     CL        CD       CDp       Cm    Top Xtr Bot Xtr   Cpmin    Chinge    XCp    
 ------- -------- --------- --------- -------- ------- ------- -------- --------- ---------
  -8.000  -0.3732   0.11937   0.11333  -0.0213  1.0030  0.2228  -1.6338   0.0000   0.1825
  -7.500  -0.3827   0.11524   0.10933  -0.0177  1.0030  0.2352  -1.6199   0.0000   0.1944
  -7.000  -0.3961   0.11138   0.10559  -0.0139  1.0030  0.2478  -1.6134   0.0000   0.2066
  -6.500  -0.4141   0.10772   0.10208  -0.0096  1.0030  0.2601  -1.6161   0.0000   0.2194
  -6.000  -0.4386   0.10436   0.09888  -0.0049  1.0030  0.2726  -1.6315   0.0000   0.2325
  -5.500  -0.4518   0.10016   0.09480  -0.0015  1.0030  0.2910  -1.6171   0.0000   0.2410
  -5.000  -0.4704   0.09575   0.09053  -0.0012  1.0030  0.3128  -1.6368   0.0000   0.2426
  -4.500  -0.4725   0.09065   0.08550   0.0002  1.0030  0.3421  -1.5955   0.0000   0.2460
  -4.000  -0.4656   0.08517   0.08007   0.0050  1.0030  0.3747  -1.5068   0.0000   0.2565
  -3.500  -0.4603   0.08020   0.07516   0.0088  1.0030  0.4200  -1.4266   0.0000   0.2653
  -3.000  -0.2292   0.04405   0.03568  -0.0758  1.0030  0.1799  -1.9230   0.0000  -0.0889
  -2.500  -0.1635   0.04040   0.03123  -0.0807  1.0030  0.2038  -1.8017   0.0000  -0.2542
  -2.000  -0.1032   0.03848   0.02869  -0.0837  1.0030  0.2394  -1.6384   0.0000  -0.5760
  -1.500  -0.0502   0.03756   0.02770  -0.0851  1.0030  0.2861  -1.4602   0.0000  -1.4709
  -1.000   0.0042   0.03722   0.02745  -0.0866  1.0030  0.3622  -1.2689   0.0000  20.9596
  -0.500   0.0622   0.03713   0.02806  -0.0881  1.0030  0.5264  -1.0742   0.0000   1.6786
   0.000   0.0591   0.03567   0.02820  -0.0750  1.0030  0.9463  -0.9920   0.0000   1.5291
   0.500   0.1099   0.03751   0.02900  -0.0791  1.0030  0.9970  -0.8214   0.0000   0.9720
   1.000   0.1535   0.03980   0.03075  -0.0808  1.0030  0.9970  -0.6733   0.0000   0.7761
   1.500   0.1936   0.04229   0.03286  -0.0821  1.0030  0.9970  -0.5553   0.0000   0.6721
   2.000   0.2313   0.04499   0.03527  -0.0832  1.0030  0.9970  -0.5179   0.0000   0.6067
   2.500   0.4164   0.05023   0.03995  -0.1069  0.8991  0.9970  -0.6471   0.0000   0.5030
   3.000   0.4742   0.05270   0.04228  -0.1095  0.8688  0.9970  -0.6938   0.0000   0.4767
   3.500   0.5321   0.05519   0.04469  -0.1119  0.8394  0.9970  -0.7433   0.0000   0.4555
   4.000   0.5867   0.05755   0.04701  -0.1135  0.8092  0.9970  -0.7967   0.0000   0.4380
   4.500   0.6395   0.05982   0.04932  -0.1146  0.7793  0.9970  -0.8531   0.0000   0.4232
   5.000   0.6917   0.06206   0.05162  -0.1154  0.7505  0.9970  -0.9116   0.0000   0.4102
   5.500   0.7422   0.06418   0.05384  -0.1157  0.7217  0.9970  -0.9772   0.0000   0.3987
   6.000   0.7892   0.06620   0.05600  -0.1153  0.6923  0.9970  -1.0466   0.0000   0.3884
   6.500   0.8371   0.06810   0.05809  -0.1148  0.6638  0.9970  -1.1234   0.0000   0.3787
   7.000   0.8940   0.06929   0.05949  -0.1145  0.6365  0.9970  -1.2233   0.0000   0.3690
   7.500   0.9374   0.07091   0.06136  -0.1128  0.6074  0.9970  -1.3154   0.0000   0.3606
   8.000   0.9807   0.07231   0.06303  -0.1108  0.5782  0.9970  -1.4233   0.0000   0.3526
   8.500   1.0205   0.07384   0.06486  -0.1083  0.5490  0.9970  -1.5445   0.0000   0.3450
   9.000   1.0658   0.07440   0.06574  -0.1054  0.5196  0.9970  -1.7522   0.0000   0.3371
   9.500   1.1188   0.07340   0.06513  -0.1018  0.4902  0.9970  -2.0537   0.0000   0.3283
  10.000   1.3337   0.05243   0.04500  -0.0990  0.4571  0.9970  -3.1472   0.0000   0.3106


