XFLR5 v6.06

 Calculated polar for: fab_h_b

 1 1 Reynolds number fixed          Mach number fixed         

 xtrf =   1.000 (top)        1.000 (bottom)
 Mach =   0.000     Re =     0.250 e 6     Ncrit =   9.000

  alpha     CL        CD       CDp       Cm    Top Xtr Bot Xtr   Cpmin    Chinge    XCp    
 ------- -------- --------- --------- -------- ------- ------- -------- --------- ---------
  -8.000  -0.0907   0.02846   0.02283  -0.1772  0.8715  0.0485  -3.6423   0.0000  -1.7827
  -7.500  -0.0509   0.02626   0.02030  -0.1767  0.8641  0.0515  -3.3711   0.0000  -3.3543
  -7.000   0.0024   0.02373   0.01732  -0.1780  0.8595  0.0550  -3.0797   0.0000  76.2385
  -6.500   0.0440   0.02225   0.01552  -0.1767  0.8521  0.0588  -2.8320   0.0000   4.4007
  -6.000   0.0978   0.02085   0.01386  -0.1770  0.8472  0.0640  -2.5627   0.0000   2.1162
  -5.500   0.1498   0.01987   0.01267  -0.1768  0.8418  0.0703  -2.3130   0.0000   1.4641
  -5.000   0.1975   0.01920   0.01193  -0.1759  0.8352  0.0779  -2.0764   0.0000   1.1637
  -4.500   0.2590   0.01836   0.01100  -0.1771  0.8308  0.0890  -1.8236   0.0000   0.9495
  -4.000   0.3035   0.01802   0.01076  -0.1754  0.8221  0.1005  -1.6157   0.0000   0.8400
  -3.500   0.3632   0.01744   0.01020  -0.1764  0.8175  0.1178  -1.3896   0.0000   0.7443
  -3.000   0.4116   0.01737   0.01018  -0.1754  0.8104  0.1403  -1.2006   0.0000   0.6827
  -2.500   0.4706   0.01684   0.00980  -0.1763  0.8042  0.1770  -1.0021   0.0000   0.6292
  -2.000   0.5273   0.01647   0.00959  -0.1767  0.7976  0.2282  -0.8213   0.0000   0.5882
  -1.500   0.5825   0.01618   0.00954  -0.1770  0.7903  0.3046  -0.8477   0.0000   0.5558
  -1.000   0.6512   0.01524   0.00916  -0.1797  0.7862  0.4856  -0.8945   0.0000   0.5267
  -0.500   0.6914   0.01508   0.00975  -0.1764  0.7758  0.7208  -0.9295   0.0000   0.5049
   0.000   0.7431   0.01504   0.00973  -0.1746  0.7691  0.8042  -0.9723   0.0000   0.4839
   0.500   0.7860   0.01500   0.00972  -0.1712  0.7603  0.8534  -1.0114   0.0000   0.4659
   1.000   0.8240   0.01482   0.00957  -0.1668  0.7507  0.8964  -1.0541   0.0000   0.4497
   1.500   0.8672   0.01420   0.00889  -0.1630  0.7436  0.9387  -1.1022   0.0000   0.4345
   2.000   0.9219   0.01406   0.00875  -0.1630  0.7327  0.9957  -1.1565   0.0000   0.4225
   2.500   0.9860   0.01379   0.00841  -0.1647  0.7223  0.9957  -1.2279   0.0000   0.4121
   3.000   1.0554   0.01342   0.00792  -0.1674  0.7137  0.9957  -1.3050   0.0000   0.4029
   3.500   1.1110   0.01334   0.00781  -0.1676  0.7005  0.9957  -1.3724   0.0000   0.3944
   4.000   1.1671   0.01317   0.00760  -0.1676  0.6858  0.9957  -1.4431   0.0000   0.3865
   4.500   1.2214   0.01310   0.00749  -0.1674  0.6700  0.9957  -1.5233   0.0000   0.3791
   5.000   1.2669   0.01325   0.00767  -0.1656  0.6504  0.9957  -1.5965   0.0000   0.3720
   5.500   1.3149   0.01339   0.00776  -0.1641  0.6291  0.9957  -1.6749   0.0000   0.3654
   6.000   1.3562   0.01371   0.00805  -0.1615  0.6029  0.9957  -1.7599   0.0000   0.3589
   6.500   1.3932   0.01417   0.00842  -0.1581  0.5748  0.9957  -1.8470   0.0000   0.3525
   7.000   1.4262   0.01487   0.00903  -0.1541  0.5461  0.9957  -1.9321   0.0000   0.3463
   7.500   1.4549   0.01579   0.00985  -0.1496  0.5160  0.9957  -2.0251   0.0000   0.3403
   8.000   1.4784   0.01696   0.01093  -0.1446  0.4848  0.9957  -2.1164   0.0000   0.3344
   8.500   1.5000   0.01833   0.01223  -0.1396  0.4555  0.9957  -2.2090   0.0000   0.3288
   9.000   1.5206   0.01991   0.01376  -0.1348  0.4281  0.9957  -2.3191   0.0000   0.3236
   9.500   1.5389   0.02172   0.01553  -0.1301  0.4010  0.9957  -2.5116   0.0000   0.3185
  10.000   1.5557   0.02376   0.01749  -0.1255  0.3754  0.9957  -2.7277   0.0000   0.3137


