XFLR5 v6.06

 Calculated polar for: fab_f_d

 1 1 Reynolds number fixed          Mach number fixed         

 xtrf =   1.000 (top)        1.000 (bottom)
 Mach =   0.000     Re =     0.400 e 6     Ncrit =   9.000

  alpha     CL        CD       CDp       Cm    Top Xtr Bot Xtr   Cpmin    Chinge    XCp    
 ------- -------- --------- --------- -------- ------- ------- -------- --------- ---------
  -8.000  -0.1344   0.01775   0.01176  -0.1710  0.8695  0.0353  -4.1304   0.0000  -1.0708
  -7.500  -0.0823   0.01650   0.01032  -0.1712  0.8631  0.0385  -3.7630   0.0000  -1.9042
  -7.000  -0.0260   0.01554   0.00918  -0.1720  0.8580  0.0427  -3.3753   0.0000  -6.5784
  -6.500   0.0260   0.01471   0.00822  -0.1718  0.8512  0.0476  -3.0185   0.0000   7.0635
  -6.000   0.0817   0.01392   0.00737  -0.1723  0.8454  0.0536  -2.6767   0.0000   2.4158
  -5.500   0.1367   0.01330   0.00669  -0.1726  0.8401  0.0614  -2.3507   0.0000   1.5431
  -5.000   0.1909   0.01274   0.00612  -0.1727  0.8338  0.0711  -2.0561   0.0000   1.1742
  -4.500   0.2496   0.01225   0.00561  -0.1735  0.8286  0.0833  -1.7612   0.0000   0.9588
  -4.000   0.3024   0.01186   0.00526  -0.1732  0.8211  0.0978  -1.5062   0.0000   0.8326
  -3.500   0.3606   0.01145   0.00488  -0.1739  0.8155  0.1200  -1.2614   0.0000   0.7395
  -3.000   0.4156   0.01118   0.00471  -0.1741  0.8092  0.1548  -1.0487   0.0000   0.6740
  -2.500   0.4725   0.01083   0.00448  -0.1745  0.8020  0.2023  -0.8528   0.0000   0.6229
  -2.000   0.5289   0.01057   0.00439  -0.1749  0.7954  0.2643  -0.7674   0.0000   0.5830
  -1.500   0.5853   0.01022   0.00430  -0.1753  0.7878  0.3597  -0.8046   0.0000   0.5508
  -1.000   0.6419   0.00980   0.00429  -0.1758  0.7804  0.5094  -0.8432   0.0000   0.5243
  -0.500   0.6963   0.00941   0.00440  -0.1754  0.7723  0.6942  -0.8861   0.0000   0.5014
   0.000   0.7480   0.00941   0.00453  -0.1742  0.7636  0.7703  -0.9276   0.0000   0.4817
   0.500   0.8023   0.00937   0.00448  -0.1734  0.7553  0.8179  -0.9761   0.0000   0.4642
   1.000   0.8500   0.00938   0.00455  -0.1714  0.7449  0.8530  -1.0230   0.0000   0.4490
   1.500   0.8979   0.00931   0.00451  -0.1694  0.7338  0.8821  -1.0739   0.0000   0.4353
   2.000   0.9420   0.00917   0.00440  -0.1665  0.7227  0.9148  -1.1286   0.0000   0.4228
   2.500   0.9851   0.00896   0.00421  -0.1634  0.7106  0.9637  -1.1849   0.0000   0.4112
   3.000   1.0436   0.00897   0.00419  -0.1642  0.6944  0.9964  -1.2522   0.0000   0.4021
   3.500   1.0985   0.00910   0.00430  -0.1643  0.6775  0.9964  -1.3256   0.0000   0.3937
   4.000   1.1513   0.00927   0.00444  -0.1640  0.6579  0.9964  -1.4018   0.0000   0.3858
   4.500   1.2012   0.00952   0.00462  -0.1629  0.6342  0.9964  -1.4772   0.0000   0.3784
   5.000   1.2478   0.00987   0.00490  -0.1613  0.6064  0.9964  -1.5665   0.0000   0.3713
   5.500   1.2915   0.01034   0.00528  -0.1591  0.5764  0.9964  -1.6575   0.0000   0.3645
   6.000   1.3301   0.01096   0.00578  -0.1560  0.5408  0.9964  -1.7553   0.0000   0.3579
   6.500   1.3628   0.01174   0.00640  -0.1519  0.5062  0.9964  -1.8547   0.0000   0.3513
   7.000   1.3948   0.01256   0.00716  -0.1477  0.4723  0.9964  -1.9643   0.0000   0.3451
   7.500   1.4224   0.01358   0.00807  -0.1430  0.4376  0.9964  -2.1235   0.0000   0.3389
   8.000   1.4480   0.01477   0.00917  -0.1383  0.4042  0.9964  -2.3653   0.0000   0.3331
   8.500   1.4714   0.01618   0.01048  -0.1335  0.3728  0.9964  -2.6726   0.0000   0.3275
   9.000   1.4947   0.01772   0.01197  -0.1291  0.3397  0.9964  -3.0471   0.0000   0.3223
   9.500   1.5152   0.01955   0.01373  -0.1246  0.3079  0.9964  -3.4244   0.0000   0.3174


