XFLR5 v6.06

 Calculated polar for: fab_b_h

 1 1 Reynolds number fixed          Mach number fixed         

 xtrf =   1.000 (top)        1.000 (bottom)
 Mach =   0.000     Re =     0.500 e 6     Ncrit =   9.000

  alpha     CL        CD       CDp       Cm    Top Xtr Bot Xtr   Cpmin    Chinge    XCp    
 ------- -------- --------- --------- -------- ------- ------- -------- --------- ---------
  -8.000  -0.2839   0.01525   0.00980  -0.1435  0.9464  0.0044  -6.6943   0.0000  -0.2734
  -7.500  -0.2145   0.01377   0.00806  -0.1472  0.9430  0.0048  -5.8999   0.0000  -0.4577
  -7.000  -0.1570   0.01274   0.00683  -0.1481  0.9342  0.0054  -5.2125   0.0000  -0.7198
  -6.500  -0.0898   0.01170   0.00570  -0.1510  0.9291  0.0111  -4.5047   0.0000  -1.4731
  -5.500   0.0269   0.01056   0.00442  -0.1525  0.9105  0.0248  -3.2277   0.0000   6.0375
  -5.000   0.0872   0.01004   0.00387  -0.1537  0.9020  0.0371  -2.6154   0.0000   2.0434
  -4.500   0.1430   0.00964   0.00349  -0.1539  0.8917  0.0574  -2.0577   0.0000   1.3430
  -4.000   0.2003   0.00926   0.00315  -0.1544  0.8817  0.0846  -1.6370   0.0000   1.0313
  -3.500   0.2590   0.00890   0.00285  -0.1552  0.8725  0.1217  -1.3411   0.0000   0.8561
  -3.000   0.3136   0.00857   0.00267  -0.1552  0.8617  0.1748  -1.0784   0.0000   0.7495
  -2.500   0.3693   0.00816   0.00255  -0.1554  0.8510  0.2686  -0.8264   0.0000   0.6741
  -2.000   0.4264   0.00784   0.00245  -0.1559  0.8413  0.3657  -0.6078   0.0000   0.6177
  -1.500   0.4818   0.00754   0.00239  -0.1560  0.8299  0.4653  -0.6423   0.0000   0.5749
  -1.000   0.5359   0.00727   0.00241  -0.1557  0.8178  0.5829  -0.6778   0.0000   0.5408
  -0.500   0.5898   0.00710   0.00248  -0.1551  0.8056  0.6847  -0.7175   0.0000   0.5127
   0.000   0.6423   0.00703   0.00255  -0.1541  0.7924  0.7643  -0.7586   0.0000   0.4890
   0.500   0.6938   0.00702   0.00262  -0.1529  0.7791  0.8208  -0.8043   0.0000   0.4688
   1.000   0.7421   0.00700   0.00267  -0.1509  0.7634  0.8700  -0.8530   0.0000   0.4512
   2.000   0.8397   0.00690   0.00261  -0.1472  0.7284  0.9976  -0.9654   0.0000   0.4220
   2.500   0.8946   0.00707   0.00271  -0.1471  0.7088  0.9976  -1.0355   0.0000   0.4107
   3.000   0.9471   0.00727   0.00283  -0.1465  0.6839  0.9976  -1.1145   0.0000   0.4004
   3.500   0.9984   0.00752   0.00302  -0.1456  0.6565  0.9976  -1.2041   0.0000   0.3910
   4.000   1.0471   0.00788   0.00326  -0.1442  0.6227  0.9976  -1.3065   0.0000   0.3823
   4.500   1.0944   0.00830   0.00357  -0.1425  0.5838  0.9976  -1.4269   0.0000   0.3742
   5.000   1.1391   0.00885   0.00397  -0.1404  0.5395  0.9976  -1.5777   0.0000   0.3667
   5.500   1.1765   0.00971   0.00452  -0.1370  0.4707  0.9976  -1.8136   0.0000   0.3592
   6.000   1.2114   0.01075   0.00521  -0.1333  0.3964  0.9976  -2.0839   0.0000   0.3522
   6.500   1.2464   0.01181   0.00598  -0.1297  0.3333  0.9976  -2.4580   0.0000   0.3456
   7.000   1.2718   0.01335   0.00701  -0.1247  0.2459  0.9976  -2.9139   0.0000   0.3389
   7.500   1.3005   0.01478   0.00810  -0.1204  0.1821  0.9976  -3.4091   0.0000   0.3328
   8.000   1.3278   0.01627   0.00931  -0.1160  0.1297  0.9976  -3.9165   0.0000   0.3269
   8.500   1.3548   0.01778   0.01063  -0.1117  0.0911  0.9976  -4.4405   0.0000   0.3213
   9.000   1.3766   0.01962   0.01225  -0.1069  0.0529  0.9976  -4.9464   0.0000   0.3157
   9.500   1.4005   0.02138   0.01393  -0.1026  0.0326  0.9976  -5.4781   0.0000   0.3106


