XFLR5 v6.06

 Calculated polar for: fab_d_f

 1 1 Reynolds number fixed          Mach number fixed         

 xtrf =   1.000 (top)        1.000 (bottom)
 Mach =   0.000     Re =     0.250 e 6     Ncrit =   9.000

  alpha     CL        CD       CDp       Cm    Top Xtr Bot Xtr   Cpmin    Chinge    XCp    
 ------- -------- --------- --------- -------- ------- ------- -------- --------- ---------
  -8.000  -0.1897   0.05668   0.05356  -0.1217  0.9460  0.0427  -3.2550   0.0000  -0.4175
  -7.500  -0.1919   0.02258   0.01639  -0.1522  0.9285  0.0353  -4.7112   0.0000  -0.5704
  -7.000  -0.1449   0.02141   0.01491  -0.1518  0.9186  0.0402  -4.1513   0.0000  -0.8309
  -6.500  -0.0743   0.01981   0.01307  -0.1557  0.9153  0.0468  -3.4926   0.0000  -1.9034
  -6.000  -0.0244   0.01857   0.01167  -0.1552  0.9061  0.0532  -2.9883   0.0000  -6.2670
  -5.500   0.0434   0.01706   0.01000  -0.1579  0.9017  0.0636  -2.5050   0.0000   3.9730
  -5.000   0.0946   0.01624   0.00920  -0.1576  0.8931  0.0768  -2.2234   0.0000   1.9498
  -4.500   0.1593   0.01534   0.00828  -0.1596  0.8878  0.0964  -1.8997   0.0000   1.2707
  -4.000   0.2125   0.01481   0.00779  -0.1595  0.8790  0.1181  -1.6260   0.0000   1.0129
  -3.500   0.2775   0.01404   0.00707  -0.1614  0.8728  0.1525  -1.3379   0.0000   0.8399
  -3.000   0.3298   0.01365   0.00685  -0.1612  0.8635  0.2012  -1.0983   0.0000   0.7445
  -2.500   0.3941   0.01303   0.00645  -0.1631  0.8576  0.2775  -0.8511   0.0000   0.6677
  -2.000   0.4467   0.01268   0.00641  -0.1628  0.8471  0.3798  -0.6648   0.0000   0.6171
  -1.500   0.5066   0.01213   0.00633  -0.1637  0.8397  0.5362  -0.7027   0.0000   0.5747
  -1.000   0.5577   0.01187   0.00652  -0.1623  0.8301  0.6964  -0.7377   0.0000   0.5417
  -0.500   0.6054   0.01185   0.00664  -0.1599  0.8192  0.7867  -0.7754   0.0000   0.5139
   0.000   0.6546   0.01176   0.00657  -0.1575  0.8103  0.8524  -0.8144   0.0000   0.4897
   0.500   0.6948   0.01158   0.00642  -0.1533  0.7991  0.9046  -0.8542   0.0000   0.4691
   1.500   0.8057   0.01132   0.00607  -0.1527  0.7746  0.9970  -0.9599   0.0000   0.4367
   2.000   0.8658   0.01128   0.00594  -0.1537  0.7613  0.9970  -1.0224   0.0000   0.4240
   2.500   0.9239   0.01127   0.00588  -0.1541  0.7473  0.9970  -1.0866   0.0000   0.4128
   3.000   0.9796   0.01126   0.00582  -0.1540  0.7311  0.9970  -1.1596   0.0000   0.4026
   3.500   1.0344   0.01124   0.00577  -0.1537  0.7131  0.9970  -1.2347   0.0000   0.3933
   4.000   1.0895   0.01128   0.00577  -0.1534  0.6947  0.9970  -1.3228   0.0000   0.3849
   4.500   1.1374   0.01141   0.00592  -0.1517  0.6691  0.9970  -1.4131   0.0000   0.3768
   5.000   1.1859   0.01162   0.00611  -0.1501  0.6415  0.9970  -1.5183   0.0000   0.3694
   5.500   1.2320   0.01196   0.00639  -0.1481  0.6090  0.9970  -1.6319   0.0000   0.3624
   6.000   1.2738   0.01246   0.00682  -0.1454  0.5714  0.9970  -1.7713   0.0000   0.3556
   6.500   1.3125   0.01314   0.00739  -0.1422  0.5316  0.9970  -2.0095   0.0000   0.3491
   7.000   1.3464   0.01401   0.00812  -0.1382  0.4897  0.9970  -2.2787   0.0000   0.3427
   7.500   1.3741   0.01498   0.00900  -0.1332  0.4473  0.9970  -2.6494   0.0000   0.3363
   8.000   1.3981   0.01617   0.01008  -0.1278  0.4038  0.9970  -3.0712   0.0000   0.3300
   8.500   1.4189   0.01757   0.01138  -0.1222  0.3614  0.9970  -3.4962   0.0000   0.3240
   9.000   1.4357   0.01929   0.01295  -0.1165  0.3173  0.9970  -3.9154   0.0000   0.3182
   9.500   1.4494   0.02136   0.01487  -0.1109  0.2722  0.9970  -4.3323   0.0000   0.3128
  10.000   1.4645   0.02361   0.01703  -0.1059  0.2321  0.9970  -4.7689   0.0000   0.3078


