XFLR5 v6.06

 Calculated polar for: fab_d_f

 1 1 Reynolds number fixed          Mach number fixed         

 xtrf =   1.000 (top)        1.000 (bottom)
 Mach =   0.000     Re =     0.100 e 6     Ncrit =   9.000

  alpha     CL        CD       CDp       Cm    Top Xtr Bot Xtr   Cpmin    Chinge    XCp    
 ------- -------- --------- --------- -------- ------- ------- -------- --------- ---------
  -8.000  -0.3748   0.11744   0.11344  -0.0220  1.0028  0.1117  -1.8274   0.0000   0.1825
  -7.500  -0.3593   0.10979   0.10580  -0.0279  0.9957  0.1190  -1.7971   0.0000   0.1636
  -7.000  -0.3556   0.10301   0.09906  -0.0318  0.9870  0.1257  -1.7921   0.0000   0.1521
  -6.500  -0.3680   0.09690   0.09303  -0.0358  0.9763  0.1329  -1.8545   0.0000   0.1453
  -6.000  -0.3553   0.08957   0.08571  -0.0414  0.9660  0.1433  -1.8020   0.0000   0.1263
  -5.500  -0.3319   0.08123   0.07733  -0.0495  0.9553  0.1549  -1.7472   0.0000   0.0937
  -5.000  -0.3291   0.07252   0.06837  -0.0598  0.9518  0.1672  -1.8210   0.0000   0.0607
  -4.500  -0.2713   0.06385   0.05945  -0.0724  0.9424  0.1913  -1.6810   0.0000  -0.0256
  -4.000  -0.1000   0.03368   0.02538  -0.1139  0.9411  0.1081  -2.2020   0.0000  -0.9166
  -3.500  -0.0324   0.03207   0.02336  -0.1172  0.9313  0.1304  -1.9718   0.0000  -3.4379
  -3.000   0.0325   0.03114   0.02235  -0.1200  0.9213  0.1601  -1.7122   0.0000   4.0093
  -2.500   0.1081   0.03038   0.02167  -0.1245  0.9120  0.2039  -1.4370   0.0000   1.4190
  -2.000   0.1811   0.02975   0.02130  -0.1285  0.9014  0.2757  -1.1719   0.0000   0.9680
  -1.500   0.2434   0.02932   0.02143  -0.1307  0.8890  0.3983  -0.9409   0.0000   0.7920
  -1.000   0.2991   0.02894   0.02216  -0.1306  0.8768  0.6542  -0.7428   0.0000   0.6896
  -0.500   0.3200   0.02903   0.02267  -0.1218  0.8623  0.8747  -0.6259   0.0000   0.6322
   0.000   0.3743   0.02931   0.02265  -0.1219  0.8466  0.9970  -0.6200   0.0000   0.5759
   0.500   0.4410   0.02999   0.02299  -0.1247  0.8320  0.9970  -0.6664   0.0000   0.5320
   1.000   0.5042   0.03067   0.02343  -0.1267  0.8172  0.9970  -0.7154   0.0000   0.4996
   1.500   0.5674   0.03118   0.02376  -0.1283  0.8021  0.9970  -0.7661   0.0000   0.4736
   2.000   0.6316   0.03144   0.02390  -0.1296  0.7866  0.9970  -0.8255   0.0000   0.4521
   3.000   0.7578   0.03156   0.02393  -0.1313  0.7565  0.9970  -0.9519   0.0000   0.4189
   3.500   0.8241   0.03097   0.02335  -0.1319  0.7416  0.9970  -1.0290   0.0000   0.4050
   4.500   0.9602   0.02898   0.02150  -0.1328  0.7129  0.9970  -1.2079   0.0000   0.3821
   5.000   1.0352   0.02736   0.02001  -0.1339  0.6980  0.9970  -1.3231   0.0000   0.3725
   5.500   1.1114   0.02567   0.01846  -0.1352  0.6822  0.9970  -1.4562   0.0000   0.3641
   6.000   1.1718   0.02463   0.01757  -0.1343  0.6586  0.9970  -1.5873   0.0000   0.3564
   6.500   1.2443   0.02319   0.01625  -0.1352  0.6336  0.9970  -1.7732   0.0000   0.3497
   7.000   1.2987   0.02266   0.01581  -0.1335  0.5994  0.9970  -2.0727   0.0000   0.3432
   7.500   1.3528   0.02244   0.01559  -0.1320  0.5606  0.9970  -2.4045   0.0000   0.3372
   8.000   1.3949   0.02291   0.01602  -0.1288  0.5172  0.9970  -2.7755   0.0000   0.3312
   8.500   1.4267   0.02388   0.01693  -0.1242  0.4717  0.9970  -3.2315   0.0000   0.3251
   9.000   1.4496   0.02514   0.01813  -0.1185  0.4267  0.9970  -3.6613   0.0000   0.3190
   9.500   1.4648   0.02671   0.01964  -0.1119  0.3830  0.9970  -4.0637   0.0000   0.3128
  10.000   1.4742   0.02865   0.02150  -0.1049  0.3410  0.9970  -4.4437   0.0000   0.3068


