XFLR5 v6.06

 Calculated polar for: fab_b_h

 1 1 Reynolds number fixed          Mach number fixed         

 xtrf =   1.000 (top)        1.000 (bottom)
 Mach =   0.000     Re =     0.150 e 6     Ncrit =   9.000

  alpha     CL        CD       CDp       Cm    Top Xtr Bot Xtr   Cpmin    Chinge    XCp    
 ------- -------- --------- --------- -------- ------- ------- -------- --------- ---------
  -6.500  -0.3602   0.03097   0.02473  -0.1014  0.9691  0.0270  -5.1688   0.0000  -0.0423
  -6.000  -0.2993   0.02965   0.02292  -0.1050  0.9596  0.0411  -4.6359   0.0000  -0.1126
  -5.500  -0.2263   0.02731   0.01988  -0.1101  0.9537  0.0508  -4.0676   0.0000  -0.2507
  -5.000  -0.1606   0.02585   0.01821  -0.1134  0.9456  0.0611  -3.4503   0.0000  -0.4734
  -4.500  -0.0907   0.02414   0.01615  -0.1168  0.9387  0.0735  -2.8820   0.0000  -1.0662
  -4.000  -0.0182   0.02256   0.01455  -0.1206  0.9315  0.0955  -2.3158   0.0000  -6.4827
  -3.500   0.0486   0.02158   0.01367  -0.1235  0.9226  0.1370  -1.8145   0.0000   2.8305
  -3.000   0.1268   0.02066   0.01298  -0.1285  0.9162  0.2000  -1.4865   0.0000   1.2770
  -2.500   0.1898   0.02002   0.01266  -0.1308  0.9058  0.2874  -1.2208   0.0000   0.9462
  -2.000   0.2731   0.01904   0.01223  -0.1364  0.9009  0.4416  -0.9109   0.0000   0.7536
  -1.500   0.3293   0.01860   0.01239  -0.1364  0.8889  0.6141  -0.6841   0.0000   0.6667
  -1.000   0.3775   0.01843   0.01261  -0.1338  0.8769  0.7672  -0.5783   0.0000   0.6057
   0.000   0.4923   0.01735   0.01151  -0.1315  0.8583  0.9976  -0.6602   0.0000   0.5165
   1.000   0.6225   0.01719   0.01102  -0.1351  0.8331  0.9976  -0.7630   0.0000   0.4652
   1.500   0.6891   0.01687   0.01061  -0.1366  0.8206  0.9976  -0.8253   0.0000   0.4459
   2.000   0.7557   0.01652   0.01020  -0.1381  0.8082  0.9976  -0.8909   0.0000   0.4297
   2.500   0.8203   0.01611   0.00978  -0.1390  0.7934  0.9976  -0.9651   0.0000   0.4159
   3.000   0.8821   0.01578   0.00946  -0.1394  0.7768  0.9976  -1.0439   0.0000   0.4039
   3.500   0.9448   0.01536   0.00905  -0.1398  0.7584  0.9976  -1.1390   0.0000   0.3933
   4.000   1.0044   0.01508   0.00881  -0.1397  0.7378  0.9976  -1.2450   0.0000   0.3839
   4.500   1.0601   0.01487   0.00863  -0.1389  0.7124  0.9976  -1.3640   0.0000   0.3752
   5.000   1.1126   0.01479   0.00860  -0.1375  0.6830  0.9976  -1.5135   0.0000   0.3672
   5.500   1.1604   0.01487   0.00872  -0.1353  0.6469  0.9976  -1.7279   0.0000   0.3596
   6.000   1.2073   0.01512   0.00895  -0.1330  0.6059  0.9976  -2.0251   0.0000   0.3525
   6.500   1.2482   0.01564   0.00942  -0.1297  0.5575  0.9976  -2.3295   0.0000   0.3456
   7.000   1.2847   0.01643   0.01007  -0.1258  0.5043  0.9976  -2.7718   0.0000   0.3389
   7.500   1.3139   0.01749   0.01100  -0.1208  0.4467  0.9976  -3.2743   0.0000   0.3322
   8.000   1.3360   0.01880   0.01216  -0.1148  0.3883  0.9976  -3.7590   0.0000   0.3255
   8.500   1.3500   0.02043   0.01358  -0.1079  0.3270  0.9976  -4.2112   0.0000   0.3188
   9.000   1.3598   0.02246   0.01539  -0.1010  0.2651  0.9976  -4.6496   0.0000   0.3124
   9.500   1.3691   0.02485   0.01759  -0.0947  0.2107  0.9976  -5.0916   0.0000   0.3065
  10.000   1.3751   0.02778   0.02031  -0.0887  0.1601  0.9976  -5.5124   0.0000   0.3011


