XFLR5 v6.06

 Calculated polar for: fab_f_d

 1 1 Reynolds number fixed          Mach number fixed         

 xtrf =   1.000 (top)        1.000 (bottom)
 Mach =   0.000     Re =     0.550 e 6     Ncrit =   9.000

  alpha     CL        CD       CDp       Cm    Top Xtr Bot Xtr   Cpmin    Chinge    XCp    
 ------- -------- --------- --------- -------- ------- ------- -------- --------- ---------
  -8.000  -0.1360   0.01453   0.00866  -0.1706  0.8481  0.0307  -4.2838   0.0000  -1.0513
  -7.500  -0.0799   0.01380   0.00776  -0.1714  0.8432  0.0343  -3.8573   0.0000  -1.9678
  -7.000  -0.0261   0.01307   0.00701  -0.1716  0.8375  0.0381  -3.4525   0.0000  -6.5332
  -6.500   0.0298   0.01244   0.00631  -0.1721  0.8317  0.0428  -3.0606   0.0000   6.1917
  -6.000   0.0862   0.01190   0.00567  -0.1726  0.8266  0.0486  -2.7060   0.0000   2.3049
  -5.500   0.1415   0.01142   0.00517  -0.1729  0.8212  0.0559  -2.3685   0.0000   1.5010
  -5.000   0.1988   0.01095   0.00465  -0.1735  0.8158  0.0650  -2.0566   0.0000   1.1414
  -4.500   0.2545   0.01057   0.00427  -0.1737  0.8099  0.0759  -1.7656   0.0000   0.9455
  -4.000   0.3109   0.01019   0.00392  -0.1741  0.8035  0.0895  -1.4975   0.0000   0.8192
  -3.500   0.3695   0.00992   0.00365  -0.1749  0.7987  0.1099  -1.2495   0.0000   0.7300
  -3.000   0.4239   0.00958   0.00345  -0.1748  0.7915  0.1423  -1.0372   0.0000   0.6672
  -2.500   0.4821   0.00931   0.00326  -0.1754  0.7855  0.1857  -0.8391   0.0000   0.6173
  -2.000   0.5373   0.00906   0.00318  -0.1756  0.7786  0.2384  -0.7744   0.0000   0.5789
  -1.500   0.5949   0.00877   0.00305  -0.1761  0.7717  0.3140  -0.8125   0.0000   0.5472
  -1.000   0.6505   0.00845   0.00304  -0.1764  0.7639  0.4247  -0.8504   0.0000   0.5214
  -0.500   0.7078   0.00799   0.00305  -0.1770  0.7563  0.6033  -0.8948   0.0000   0.4995
   0.000   0.7605   0.00784   0.00320  -0.1762  0.7473  0.7251  -0.9370   0.0000   0.4803
   0.500   0.8150   0.00785   0.00325  -0.1757  0.7389  0.7798  -0.9856   0.0000   0.4635
   1.000   0.8665   0.00784   0.00328  -0.1745  0.7280  0.8179  -1.0352   0.0000   0.4487
   1.500   0.9177   0.00785   0.00334  -0.1734  0.7168  0.8442  -1.0889   0.0000   0.4356
   2.000   0.9677   0.00786   0.00338  -0.1720  0.7045  0.8709  -1.1483   0.0000   0.4237
   2.500   1.0151   0.00787   0.00341  -0.1701  0.6892  0.8972  -1.2078   0.0000   0.4128
   3.000   1.0567   0.00784   0.00345  -0.1668  0.6735  0.9315  -1.2635   0.0000   0.4025
   3.500   1.1051   0.00786   0.00345  -0.1652  0.6553  0.9964  -1.3331   0.0000   0.3935
   4.000   1.1580   0.00812   0.00364  -0.1650  0.6321  0.9964  -1.4095   0.0000   0.3858
   4.500   1.2072   0.00847   0.00390  -0.1639  0.6043  0.9964  -1.4849   0.0000   0.3785
   5.000   1.2531   0.00892   0.00424  -0.1622  0.5742  0.9964  -1.5738   0.0000   0.3715
   5.500   1.2950   0.00949   0.00468  -0.1598  0.5398  0.9964  -1.6631   0.0000   0.3647
   6.000   1.3319   0.01020   0.00524  -0.1564  0.5039  0.9964  -1.7596   0.0000   0.3580
   6.500   1.3669   0.01091   0.00586  -0.1528  0.4704  0.9964  -1.8621   0.0000   0.3516
   7.000   1.3985   0.01180   0.00662  -0.1486  0.4360  0.9964  -1.9723   0.0000   0.3454
   7.500   1.4280   0.01281   0.00752  -0.1443  0.4019  0.9964  -2.1446   0.0000   0.3394
   8.000   1.4565   0.01394   0.00856  -0.1401  0.3708  0.9964  -2.3983   0.0000   0.3338
   8.500   1.4830   0.01525   0.00978  -0.1359  0.3369  0.9964  -2.7709   0.0000   0.3284
   9.000   1.5065   0.01682   0.01124  -0.1315  0.3044  0.9964  -3.1540   0.0000   0.3232
   9.500   1.5278   0.01864   0.01294  -0.1271  0.2692  0.9964  -3.5430   0.0000   0.3183
  10.000   1.5465   0.02073   0.01489  -0.1228  0.2338  0.9964  -3.9342   0.0000   0.3136


