XFLR5 v6.06

 Calculated polar for: fab_h_b

 1 1 Reynolds number fixed          Mach number fixed         

 xtrf =   1.000 (top)        1.000 (bottom)
 Mach =   0.000     Re =     0.300 e 6     Ncrit =   9.000

  alpha     CL        CD       CDp       Cm    Top Xtr Bot Xtr   Cpmin    Chinge    XCp    
 ------- -------- --------- --------- -------- ------- ------- -------- --------- ---------
  -8.000  -0.0090   0.05254   0.04906  -0.1528  0.8636  0.0534  -2.3619   0.0000  -17.4636
  -7.500  -0.0401   0.02184   0.01548  -0.1788  0.8521  0.0479  -3.4743   0.0000  -4.3805
  -7.000   0.0126   0.02030   0.01374  -0.1792  0.8470  0.0513  -3.1430   0.0000  14.9513
  -6.500   0.0646   0.01907   0.01230  -0.1793  0.8419  0.0554  -2.8449   0.0000   3.1184
  -6.000   0.1145   0.01812   0.01120  -0.1788  0.8360  0.0604  -2.5676   0.0000   1.8586
  -5.500   0.1711   0.01714   0.01009  -0.1794  0.8316  0.0667  -2.2986   0.0000   1.3274
  -5.000   0.2217   0.01660   0.00958  -0.1789  0.8262  0.0743  -2.0461   0.0000   1.0773
  -4.500   0.2753   0.01601   0.00896  -0.1788  0.8199  0.0845  -1.8062   0.0000   0.9141
  -4.000   0.3364   0.01540   0.00831  -0.1799  0.8154  0.0979  -1.5629   0.0000   0.7956
  -3.500   0.3835   0.01518   0.00819  -0.1788  0.8081  0.1135  -1.3596   0.0000   0.7242
  -3.000   0.4424   0.01481   0.00784  -0.1795  0.8031  0.1392  -1.1504   0.0000   0.6617
  -2.500   0.4960   0.01450   0.00770  -0.1795  0.7963  0.1755  -0.9630   0.0000   0.6161
  -2.000   0.5532   0.01412   0.00747  -0.1800  0.7898  0.2259  -0.8299   0.0000   0.5782
  -1.500   0.6123   0.01377   0.00733  -0.1809  0.7843  0.3033  -0.8694   0.0000   0.5471
  -1.000   0.6667   0.01331   0.00733  -0.1812  0.7762  0.4461  -0.9069   0.0000   0.5223
  -0.500   0.7250   0.01266   0.00740  -0.1813  0.7707  0.7027  -0.9536   0.0000   0.4998
   0.000   0.7706   0.01277   0.00763  -0.1788  0.7616  0.7842  -0.9924   0.0000   0.4808
   0.500   0.8225   0.01269   0.00753  -0.1773  0.7545  0.8316  -1.0376   0.0000   0.4635
   1.000   0.8680   0.01254   0.00740  -0.1745  0.7453  0.8693  -1.0860   0.0000   0.4482
   1.500   0.9090   0.01244   0.00733  -0.1710  0.7362  0.9017  -1.1321   0.0000   0.4346
   2.000   0.9568   0.01195   0.00678  -0.1686  0.7279  0.9353  -1.1848   0.0000   0.4219
   2.500   1.0071   0.01168   0.00655  -0.1674  0.7160  0.9957  -1.2471   0.0000   0.4112
   3.000   1.0657   0.01167   0.00651  -0.1684  0.7043  0.9957  -1.3159   0.0000   0.4022
   3.500   1.1234   0.01159   0.00638  -0.1690  0.6905  0.9957  -1.3850   0.0000   0.3939
   4.000   1.1782   0.01158   0.00634  -0.1690  0.6750  0.9957  -1.4554   0.0000   0.3862
   4.500   1.2310   0.01165   0.00637  -0.1686  0.6581  0.9957  -1.5342   0.0000   0.3790
   5.000   1.2806   0.01182   0.00649  -0.1675  0.6383  0.9957  -1.6113   0.0000   0.3721
   5.500   1.3250   0.01212   0.00674  -0.1655  0.6142  0.9957  -1.6867   0.0000   0.3655
   6.000   1.3643   0.01255   0.00710  -0.1626  0.5861  0.9957  -1.7708   0.0000   0.3590
   6.500   1.3982   0.01316   0.00761  -0.1586  0.5575  0.9957  -1.8549   0.0000   0.3525
   7.000   1.4291   0.01396   0.00833  -0.1544  0.5283  0.9957  -1.9379   0.0000   0.3463
   7.500   1.4549   0.01500   0.00925  -0.1495  0.4973  0.9957  -2.0280   0.0000   0.3402
   8.000   1.4775   0.01625   0.01042  -0.1445  0.4666  0.9957  -2.1180   0.0000   0.3344
   8.500   1.4993   0.01770   0.01180  -0.1397  0.4386  0.9957  -2.2108   0.0000   0.3289
   9.000   1.5199   0.01935   0.01341  -0.1351  0.4111  0.9957  -2.3210   0.0000   0.3237
   9.500   1.5383   0.02124   0.01525  -0.1305  0.3844  0.9957  -2.5162   0.0000   0.3188


