XFLR5 v6.06

 Calculated polar for: fab_h_b

 1 1 Reynolds number fixed          Mach number fixed         

 xtrf =   1.000 (top)        1.000 (bottom)
 Mach =   0.000     Re =     0.400 e 6     Ncrit =   9.000

  alpha     CL        CD       CDp       Cm    Top Xtr Bot Xtr   Cpmin    Chinge    XCp    
 ------- -------- --------- --------- -------- ------- ------- -------- --------- ---------
  -8.000  -0.0850   0.01892   0.01281  -0.1793  0.8387  0.0400  -3.9369   0.0000  -1.9452
  -7.500  -0.0320   0.01775   0.01150  -0.1797  0.8339  0.0429  -3.5516   0.0000  -5.5743
  -7.000   0.0239   0.01667   0.01020  -0.1804  0.8297  0.0462  -3.1970   0.0000   8.0567
  -6.500   0.0749   0.01581   0.00927  -0.1801  0.8241  0.0501  -2.8861   0.0000   2.7313
  -6.000   0.1296   0.01502   0.00840  -0.1804  0.8195  0.0548  -2.5842   0.0000   1.6830
  -5.500   0.1876   0.01439   0.00761  -0.1812  0.8157  0.0611  -2.2972   0.0000   1.2419
  -5.000   0.2391   0.01381   0.00713  -0.1809  0.8101  0.0685  -2.0390   0.0000   1.0249
  -4.500   0.2950   0.01329   0.00658  -0.1812  0.8046  0.0784  -1.7849   0.0000   0.8775
  -4.000   0.3537   0.01291   0.00617  -0.1820  0.8000  0.0907  -1.5440   0.0000   0.7743
  -3.500   0.4061   0.01258   0.00593  -0.1816  0.7940  0.1061  -1.3280   0.0000   0.7047
  -3.000   0.4641   0.01222   0.00562  -0.1823  0.7888  0.1317  -1.1181   0.0000   0.6481
  -2.500   0.5203   0.01193   0.00545  -0.1826  0.7829  0.1682  -0.9264   0.0000   0.6048
  -2.000   0.5760   0.01164   0.00529  -0.1828  0.7765  0.2139  -0.8471   0.0000   0.5699
  -1.500   0.6376   0.01130   0.00509  -0.1842  0.7714  0.2831  -0.8883   0.0000   0.5403
  -1.000   0.6899   0.01095   0.00511  -0.1839  0.7636  0.3932  -0.9245   0.0000   0.5170
  -0.500   0.7504   0.01028   0.00507  -0.1851  0.7577  0.6301  -0.9723   0.0000   0.4962
   0.000   0.7989   0.01023   0.00532  -0.1833  0.7491  0.7522  -1.0133   0.0000   0.4781
   0.500   0.8561   0.01019   0.00522  -0.1832  0.7426  0.8008  -1.0622   0.0000   0.4617
   1.000   0.9021   0.01020   0.00532  -0.1808  0.7330  0.8343  -1.1113   0.0000   0.4475
   1.500   0.9521   0.01011   0.00523  -0.1792  0.7237  0.8626  -1.1637   0.0000   0.4346
   2.000   1.0019   0.00997   0.00508  -0.1777  0.7143  0.8864  -1.2201   0.0000   0.4229
   2.500   1.0442   0.00987   0.00504  -0.1746  0.7027  0.9124  -1.2773   0.0000   0.4121
   3.000   1.0801   0.00965   0.00487  -0.1701  0.6893  0.9519  -1.3304   0.0000   0.4017
   3.500   1.1368   0.00962   0.00483  -0.1706  0.6744  0.9957  -1.3989   0.0000   0.3935
   4.000   1.1922   0.00975   0.00491  -0.1709  0.6579  0.9957  -1.4706   0.0000   0.3861
   4.500   1.2441   0.00998   0.00507  -0.1704  0.6387  0.9957  -1.5488   0.0000   0.3790
   5.000   1.2911   0.01029   0.00534  -0.1690  0.6151  0.9957  -1.6237   0.0000   0.3722
   5.500   1.3334   0.01072   0.00568  -0.1667  0.5874  0.9957  -1.6975   0.0000   0.3655
   6.000   1.3697   0.01130   0.00615  -0.1632  0.5582  0.9957  -1.7793   0.0000   0.3589
   6.500   1.4025   0.01202   0.00678  -0.1592  0.5292  0.9957  -1.8626   0.0000   0.3525
   7.000   1.4306   0.01296   0.00759  -0.1546  0.4986  0.9957  -1.9425   0.0000   0.3463
   7.500   1.4557   0.01408   0.00861  -0.1497  0.4672  0.9957  -2.0321   0.0000   0.3403
   8.000   1.4797   0.01538   0.00984  -0.1451  0.4390  0.9957  -2.1241   0.0000   0.3346
   8.500   1.5031   0.01686   0.01127  -0.1407  0.4114  0.9957  -2.2191   0.0000   0.3293
   9.000   1.5238   0.01861   0.01295  -0.1363  0.3843  0.9957  -2.3311   0.0000   0.3243
   9.500   1.5433   0.02056   0.01484  -0.1320  0.3592  0.9957  -2.5387   0.0000   0.3194
  10.000   1.5649   0.02250   0.01677  -0.1282  0.3347  0.9957  -2.7703   0.0000   0.3149


