XFLR5 v6.06

 Calculated polar for: fab_f_d

 1 1 Reynolds number fixed          Mach number fixed         

 xtrf =   1.000 (top)        1.000 (bottom)
 Mach =   0.000     Re =     0.300 e 6     Ncrit =   9.000

  alpha     CL        CD       CDp       Cm    Top Xtr Bot Xtr   Cpmin    Chinge    XCp    
 ------- -------- --------- --------- -------- ------- ------- -------- --------- ---------
  -8.000  -0.1388   0.02247   0.01669  -0.1702  0.8898  0.0396  -3.9467   0.0000  -1.0225
  -7.500  -0.0876   0.02030   0.01408  -0.1709  0.8837  0.0429  -3.6438   0.0000  -1.7687
  -7.000  -0.0371   0.01881   0.01226  -0.1709  0.8766  0.0474  -3.3210   0.0000  -4.5001
  -6.500   0.0204   0.01746   0.01068  -0.1719  0.8715  0.0528  -2.9671   0.0000   8.9431
  -6.000   0.0691   0.01660   0.00977  -0.1711  0.8636  0.0589  -2.6614   0.0000   2.7926
  -5.500   0.1267   0.01567   0.00874  -0.1719  0.8586  0.0672  -2.3395   0.0000   1.6400
  -5.000   0.1772   0.01509   0.00814  -0.1713  0.8515  0.0771  -2.0642   0.0000   1.2384
  -4.500   0.2338   0.01450   0.00754  -0.1718  0.8456  0.0899  -1.7794   0.0000   0.9996
  -4.000   0.2877   0.01403   0.00709  -0.1717  0.8384  0.1058  -1.5272   0.0000   0.8575
  -3.500   0.3442   0.01356   0.00667  -0.1721  0.8316  0.1284  -1.2874   0.0000   0.7577
  -3.000   0.4009   0.01321   0.00642  -0.1726  0.8259  0.1646  -1.0719   0.0000   0.6861
  -2.500   0.4555   0.01287   0.00623  -0.1727  0.8180  0.2149  -0.8799   0.0000   0.6330
  -2.000   0.5138   0.01250   0.00605  -0.1734  0.8112  0.2872  -0.7559   0.0000   0.5901
  -1.500   0.5687   0.01213   0.00604  -0.1737  0.8033  0.3995  -0.7918   0.0000   0.5569
  -1.000   0.6254   0.01161   0.00609  -0.1740  0.7959  0.5929  -0.8307   0.0000   0.5288
  -0.500   0.6764   0.01143   0.00626  -0.1725  0.7871  0.7426  -0.8717   0.0000   0.5046
   0.000   0.7251   0.01150   0.00639  -0.1705  0.7782  0.8053  -0.9112   0.0000   0.4840
   0.500   0.7771   0.01137   0.00623  -0.1689  0.7702  0.8543  -0.9581   0.0000   0.4655
   1.000   0.8180   0.01128   0.00621  -0.1652  0.7591  0.8905  -1.0006   0.0000   0.4494
   1.500   0.8571   0.01110   0.00606  -0.1611  0.7490  0.9320  -1.0441   0.0000   0.4348
   2.000   0.9167   0.01076   0.00567  -0.1616  0.7382  0.9964  -1.1084   0.0000   0.4224
   2.500   0.9777   0.01072   0.00556  -0.1629  0.7264  0.9964  -1.1765   0.0000   0.4121
   3.000   1.0345   0.01072   0.00552  -0.1633  0.7124  0.9964  -1.2425   0.0000   0.4027
   4.000   1.1414   0.01082   0.00558  -0.1626  0.6785  0.9964  -1.3908   0.0000   0.3859
   4.500   1.1916   0.01096   0.00571  -0.1616  0.6577  0.9964  -1.4660   0.0000   0.3784
   5.000   1.2397   0.01118   0.00587  -0.1601  0.6326  0.9964  -1.5560   0.0000   0.3712
   5.500   1.2848   0.01153   0.00616  -0.1581  0.6044  0.9964  -1.6481   0.0000   0.3644
   6.000   1.3265   0.01202   0.00658  -0.1555  0.5736  0.9964  -1.7483   0.0000   0.3579
   6.500   1.3624   0.01270   0.00713  -0.1519  0.5377  0.9964  -1.8512   0.0000   0.3514
   7.000   1.3931   0.01351   0.00784  -0.1474  0.5036  0.9964  -1.9587   0.0000   0.3450
   7.500   1.4213   0.01448   0.00872  -0.1427  0.4691  0.9964  -2.1141   0.0000   0.3388
   8.000   1.4452   0.01566   0.00980  -0.1375  0.4349  0.9964  -2.3481   0.0000   0.3328
   8.500   1.4675   0.01703   0.01110  -0.1325  0.4021  0.9964  -2.6085   0.0000   0.3271
   9.000   1.4881   0.01861   0.01262  -0.1275  0.3703  0.9964  -2.9653   0.0000   0.3217
   9.500   1.5073   0.02042   0.01439  -0.1228  0.3381  0.9964  -3.3299   0.0000   0.3166
  10.000   1.5242   0.02251   0.01642  -0.1182  0.3072  0.9964  -3.6976   0.0000   0.3118


