XFLR5 v6.06

 Calculated polar for: fab_h_b

 1 1 Reynolds number fixed          Mach number fixed         

 xtrf =   1.000 (top)        1.000 (bottom)
 Mach =   0.000     Re =     0.050 e 6     Ncrit =   9.000

  alpha     CL        CD       CDp       Cm    Top Xtr Bot Xtr   Cpmin    Chinge    XCp    
 ------- -------- --------- --------- -------- ------- ------- -------- --------- ---------
  -8.000  -0.3767   0.13441   0.12862  -0.0168  1.0043  0.2035  -1.4748   0.0000   0.1913
  -7.500  -0.3983   0.13129   0.12564  -0.0150  1.0043  0.2115  -1.5163   0.0000   0.2001
  -7.000  -0.4225   0.12886   0.12333  -0.0123  1.0043  0.2224  -1.5500   0.0000   0.2102
  -6.500  -0.4276   0.12411   0.11867  -0.0090  1.0043  0.2352  -1.5345   0.0000   0.2190
  -6.000  -0.4367   0.11960   0.11425  -0.0054  1.0043  0.2475  -1.5269   0.0000   0.2286
  -5.500  -0.4526   0.11543   0.11019  -0.0015  1.0043  0.2588  -1.5328   0.0000   0.2386
  -5.000  -0.4681   0.11110   0.10597   0.0011  1.0043  0.2739  -1.5420   0.0000   0.2450
  -4.500  -0.4901   0.10660   0.10159  -0.0017  1.0043  0.2940  -1.5952   0.0000   0.2402
  -4.000  -0.4803   0.10109   0.09611   0.0040  1.0043  0.3159  -1.5178   0.0000   0.2524
  -3.500  -0.4788   0.09584   0.09092   0.0051  1.0043  0.3446  -1.4893   0.0000   0.2551
  -3.000  -0.4744   0.09082   0.08594   0.0063  1.0043  0.3856  -1.4574   0.0000   0.2581
  -2.500  -0.4667   0.08631   0.08149   0.0110  1.0043  0.4323  -1.4000   0.0000   0.2688
  -2.000  -0.4624   0.08257   0.07782   0.0195  1.0043  0.4959  -1.3369   0.0000   0.2878
  -1.500  -0.3677   0.07080   0.06560  -0.0159  1.0043  0.4326  -1.3517   0.0000   0.2017
  -1.000  -0.4015   0.07103   0.06617   0.0101  1.0043  0.5521  -1.2681   0.0000   0.2710
  -0.500  -0.0342   0.05027   0.04051  -0.0897  1.0043  0.2509  -1.3999   0.0000  -2.4163
   0.000   0.0153   0.05080   0.04101  -0.0914  1.0043  0.2892  -1.2611   0.0000   6.3203
   0.500   0.0662   0.05192   0.04216  -0.0933  1.0043  0.3534  -1.1264   0.0000   1.6722
   1.000   0.1261   0.05335   0.04450  -0.0963  1.0043  0.5178  -0.9791   0.0000   1.0175
   1.500   0.1375   0.05301   0.04523  -0.0885  0.9999  0.9957  -0.9073   0.0000   0.8945
   2.000   0.2129   0.05808   0.04946  -0.0965  0.9786  0.9957  -0.7254   0.0000   0.7019
   2.500   0.2759   0.06251   0.05343  -0.1022  0.9518  0.9957  -0.5891   0.0000   0.6172
   3.000   0.3308   0.06666   0.05726  -0.1062  0.9247  0.9957  -0.6265   0.0000   0.5668
   3.500   0.3815   0.07080   0.06115  -0.1093  0.8977  0.9957  -0.6626   0.0000   0.5314
   4.000   0.4290   0.07487   0.06504  -0.1117  0.8697  0.9957  -0.6979   0.0000   0.5045
   4.500   0.4745   0.07898   0.06901  -0.1137  0.8416  0.9957  -0.7311   0.0000   0.4830
   5.000   0.5222   0.08334   0.07327  -0.1158  0.8142  0.9957  -0.7668   0.0000   0.4645
   5.500   0.5665   0.08746   0.07734  -0.1173  0.7857  0.9957  -0.8072   0.0000   0.4491
   6.000   0.6030   0.09114   0.08099  -0.1176  0.7561  0.9957  -0.8434   0.0000   0.4363
   6.500   0.6965   0.08825   0.07793  -0.1166  0.6651  0.9957  -0.9586   0.0000   0.4078
   7.000   0.7457   0.09094   0.08065  -0.1169  0.6392  0.9957  -1.0160   0.0000   0.3965
   7.500   0.7621   0.09512   0.08492  -0.1157  0.6173  0.9957  -1.0355   0.0000   0.3907
   8.000   0.8051   0.09844   0.08832  -0.1158  0.5954  0.9957  -1.0963   0.0000   0.3820
   8.500   0.8122   0.10363   0.09362  -0.1146  0.5761  0.9957  -1.1086   0.0000   0.3786
   9.000   0.8645   0.10640   0.09652  -0.1148  0.5535  0.9957  -1.1875   0.0000   0.3696
   9.500   0.8651   0.11229   0.10253  -0.1138  0.5350  0.9957  -1.1918   0.0000   0.3675
  10.000   0.8739   0.11815   0.10854  -0.1135  0.5187  0.9957  -1.2083   0.0000   0.3652


