XFLR5 v6.06

 Calculated polar for: fab_f_d

 1 1 Reynolds number fixed          Mach number fixed         

 xtrf =   1.000 (top)        1.000 (bottom)
 Mach =   0.000     Re =     0.150 e 6     Ncrit =   9.000

  alpha     CL        CD       CDp       Cm    Top Xtr Bot Xtr   Cpmin    Chinge    XCp    
 ------- -------- --------- --------- -------- ------- ------- -------- --------- ---------
  -8.000  -0.1550   0.08777   0.08385  -0.0968  0.9436  0.0949  -1.7109   0.0000  -0.4092
  -7.500  -0.1441   0.08385   0.07995  -0.0947  0.9328  0.0998  -1.6234   0.0000  -0.4414
  -7.000  -0.1548   0.07899   0.07514  -0.0954  0.9192  0.1039  -1.6680   0.0000  -0.3954
  -6.500  -0.1659   0.07235   0.06853  -0.1015  0.9049  0.1106  -1.7720   0.0000  -0.3867
  -5.500  -0.0910   0.03266   0.02572  -0.1389  0.8872  0.0742  -2.6833   0.0000  -1.3226
  -5.000  -0.0434   0.03042   0.02274  -0.1391  0.8775  0.0817  -2.4941   0.0000  -3.0421
  -4.500   0.0359   0.02843   0.02044  -0.1439  0.8732  0.0943  -2.1705   0.0000   4.3562
  -4.000   0.0805   0.02780   0.01980  -0.1429  0.8631  0.1061  -1.9440   0.0000   2.0639
  -3.500   0.1577   0.02659   0.01845  -0.1470  0.8589  0.1269  -1.6514   0.0000   1.2000
  -3.000   0.2026   0.02647   0.01840  -0.1459  0.8482  0.1477  -1.4412   0.0000   0.9823
  -2.500   0.2837   0.02538   0.01743  -0.1505  0.8440  0.1901  -1.1770   0.0000   0.7878
  -2.000   0.3335   0.02523   0.01751  -0.1502  0.8323  0.2443  -0.9950   0.0000   0.7054
  -1.500   0.4201   0.02392   0.01672  -0.1559  0.8291  0.3666  -0.7655   0.0000   0.6240
  -0.500   0.4973   0.02401   0.01822  -0.1488  0.8050  0.7885  -0.7455   0.0000   0.5498
   0.000   0.5473   0.02298   0.01720  -0.1443  0.7998  0.8969  -0.7876   0.0000   0.5133
   0.500   0.5874   0.02306   0.01720  -0.1412  0.7864  0.9964  -0.8212   0.0000   0.4891
   1.500   0.7349   0.02222   0.01598  -0.1471  0.7706  0.9964  -0.9452   0.0000   0.4473
   2.000   0.7917   0.02224   0.01590  -0.1474  0.7577  0.9964  -1.0019   0.0000   0.4325
   3.000   0.9171   0.02146   0.01501  -0.1489  0.7352  0.9964  -1.1374   0.0000   0.4073
   3.500   0.9945   0.02028   0.01378  -0.1516  0.7269  0.9964  -1.2212   0.0000   0.3968
   4.000   1.0536   0.01984   0.01335  -0.1517  0.7131  0.9964  -1.3015   0.0000   0.3876
   4.500   1.1171   0.01905   0.01257  -0.1522  0.6983  0.9964  -1.3875   0.0000   0.3792
   5.000   1.1799   0.01841   0.01193  -0.1527  0.6825  0.9964  -1.4835   0.0000   0.3717
   5.500   1.2255   0.01836   0.01197  -0.1505  0.6607  0.9964  -1.5730   0.0000   0.3644
   6.000   1.2877   0.01777   0.01134  -0.1508  0.6388  0.9964  -1.6893   0.0000   0.3580
   6.500   1.3333   0.01784   0.01143  -0.1486  0.6106  0.9964  -1.8010   0.0000   0.3515
   7.000   1.3801   0.01805   0.01159  -0.1466  0.5800  0.9964  -1.9243   0.0000   0.3455
   7.500   1.4139   0.01868   0.01221  -0.1425  0.5440  0.9964  -2.0663   0.0000   0.3394
   8.000   1.4480   0.01946   0.01289  -0.1386  0.5091  0.9964  -2.3207   0.0000   0.3335
   8.500   1.4756   0.02054   0.01391  -0.1339  0.4741  0.9964  -2.5761   0.0000   0.3277
   9.000   1.4965   0.02187   0.01520  -0.1283  0.4395  0.9964  -2.8509   0.0000   0.3219
   9.500   1.5151   0.02342   0.01671  -0.1228  0.4066  0.9964  -3.2011   0.0000   0.3163
  10.000   1.5310   0.02522   0.01844  -0.1173  0.3750  0.9964  -3.5518   0.0000   0.3110


