XFLR5 v6.06

 Calculated polar for: fab_b_h

 1 1 Reynolds number fixed          Mach number fixed         

 xtrf =   1.000 (top)        1.000 (bottom)
 Mach =   0.000     Re =     0.300 e 6     Ncrit =   9.000

  alpha     CL        CD       CDp       Cm    Top Xtr Bot Xtr   Cpmin    Chinge    XCp    
 ------- -------- --------- --------- -------- ------- ------- -------- --------- ---------
  -8.000  -0.3736   0.02218   0.01674  -0.1249  0.9505  0.0077  -6.7102   0.0000  -0.0984
  -7.500  -0.3070   0.01952   0.01362  -0.1291  0.9456  0.0087  -6.1004   0.0000  -0.1861
  -7.000  -0.2328   0.01748   0.01127  -0.1342  0.9430  0.0118  -5.4342   0.0000  -0.3446
  -6.500  -0.1760   0.01632   0.00990  -0.1351  0.9345  0.0210  -4.8650   0.0000  -0.5394
  -6.000  -0.1022   0.01543   0.00886  -0.1393  0.9314  0.0292  -4.1175   0.0000  -1.1475
  -5.500  -0.0260   0.01442   0.00774  -0.1439  0.9291  0.0364  -3.3998   0.0000  -5.3958
  -5.000   0.0295   0.01380   0.00710  -0.1442  0.9196  0.0500  -2.8140   0.0000   5.2364
  -4.500   0.1018   0.01290   0.00621  -0.1479  0.9159  0.0752  -2.1824   0.0000   1.7276
  -4.000   0.1589   0.01240   0.00574  -0.1484  0.9066  0.1046  -1.7329   0.0000   1.1975
  -3.500   0.2289   0.01166   0.00519  -0.1516  0.9013  0.1646  -1.4013   0.0000   0.9203
  -3.000   0.2842   0.01118   0.00494  -0.1518  0.8909  0.2378  -1.1383   0.0000   0.7896
  -2.500   0.3449   0.01066   0.00465  -0.1530  0.8823  0.3268  -0.8759   0.0000   0.6973
  -2.000   0.4067   0.01013   0.00439  -0.1543  0.8733  0.4394  -0.6364   0.0000   0.6317
  -1.500   0.4609   0.00977   0.00438  -0.1540  0.8620  0.5662  -0.6284   0.0000   0.5854
  -1.000   0.5153   0.00950   0.00442  -0.1533  0.8511  0.6871  -0.6640   0.0000   0.5481
  -0.500   0.5683   0.00934   0.00442  -0.1521  0.8396  0.7762  -0.7034   0.0000   0.5173
   0.000   0.6191   0.00923   0.00437  -0.1502  0.8282  0.8431  -0.7432   0.0000   0.4917
   0.500   0.6618   0.00910   0.00428  -0.1465  0.8141  0.9025  -0.7839   0.0000   0.4700
   1.000   0.7164   0.00887   0.00406  -0.1457  0.8001  0.9976  -0.8348   0.0000   0.4513
   1.500   0.7754   0.00893   0.00400  -0.1465  0.7847  0.9976  -0.8938   0.0000   0.4363
   2.000   0.8312   0.00902   0.00402  -0.1465  0.7679  0.9976  -0.9564   0.0000   0.4231
   2.500   0.8845   0.00911   0.00408  -0.1459  0.7482  0.9976  -1.0251   0.0000   0.4113
   3.000   0.9385   0.00922   0.00413  -0.1455  0.7279  0.9976  -1.1040   0.0000   0.4008
   3.500   0.9899   0.00937   0.00426  -0.1445  0.7036  0.9976  -1.1928   0.0000   0.3912
   4.000   1.0406   0.00958   0.00443  -0.1433  0.6764  0.9976  -1.2959   0.0000   0.3824
   4.500   1.0889   0.00987   0.00466  -0.1417  0.6433  0.9976  -1.4139   0.0000   0.3742
   5.000   1.1351   0.01027   0.00498  -0.1397  0.6060  0.9976  -1.5654   0.0000   0.3665
   5.500   1.1782   0.01082   0.00542  -0.1371  0.5626  0.9976  -1.8071   0.0000   0.3592
   6.000   1.2180   0.01151   0.00598  -0.1341  0.5137  0.9976  -2.0892   0.0000   0.3523
   6.500   1.2536   0.01240   0.00669  -0.1303  0.4598  0.9976  -2.4412   0.0000   0.3455
   7.000   1.2847   0.01347   0.00754  -0.1259  0.4007  0.9976  -2.9391   0.0000   0.3389
   7.500   1.3069   0.01485   0.00859  -0.1201  0.3304  0.9976  -3.4110   0.0000   0.3321
   8.000   1.3269   0.01653   0.00990  -0.1144  0.2577  0.9976  -3.8891   0.0000   0.3258
   8.500   1.3478   0.01831   0.01138  -0.1092  0.1962  0.9976  -4.3891   0.0000   0.3199
   9.000   1.3665   0.02034   0.01312  -0.1041  0.1400  0.9976  -4.8896   0.0000   0.3143
   9.500   1.3850   0.02250   0.01506  -0.0993  0.0972  0.9976  -5.4010   0.0000   0.3090
  10.000   1.4030   0.02479   0.01724  -0.0947  0.0653  0.9976  -5.9161   0.0000   0.3041


