XFLR5 v6.06

 Calculated polar for: fab_h_b

 1 1 Reynolds number fixed          Mach number fixed         

 xtrf =   1.000 (top)        1.000 (bottom)
 Mach =   0.000     Re =     0.200 e 6     Ncrit =   9.000

  alpha     CL        CD       CDp       Cm    Top Xtr Bot Xtr   Cpmin    Chinge    XCp    
 ------- -------- --------- --------- -------- ------- ------- -------- --------- ---------
  -8.000   0.0241   0.06886   0.06498  -0.1457  0.9003  0.0894  -1.7710   0.0000   6.5596
  -7.500  -0.0266   0.04745   0.04329  -0.1635  0.8837  0.0656  -2.5258   0.0000  -6.1429
  -7.000   0.0747   0.05858   0.05483  -0.1406  0.8773  0.1006  -1.4574   0.0000   2.2004
  -6.500  -0.0124   0.02915   0.02283  -0.1677  0.8624  0.0631  -2.8473   0.0000  -13.7360
  -6.000   0.0536   0.02612   0.01920  -0.1711  0.8594  0.0685  -2.5881   0.0000   3.5402
  -5.000   0.1485   0.02385   0.01637  -0.1696  0.8457  0.0815  -2.1448   0.0000   1.4233
  -4.500   0.1836   0.02356   0.01592  -0.1664  0.8349  0.0897  -1.9587   0.0000   1.1792
  -4.000   0.2538   0.02237   0.01466  -0.1691  0.8316  0.1038  -1.6979   0.0000   0.9309
  -3.000   0.3563   0.02177   0.01418  -0.1684  0.8176  0.1396  -1.2913   0.0000   0.7303
  -2.000   0.4712   0.02080   0.01354  -0.1695  0.8032  0.2197  -0.9103   0.0000   0.6135
  -1.000   0.5877   0.01987   0.01345  -0.1714  0.7889  0.4451  -0.8490   0.0000   0.5428
   0.000   0.6836   0.01909   0.01361  -0.1659  0.7735  0.8232  -0.9295   0.0000   0.4918
   0.500   0.7081   0.01944   0.01401  -0.1592  0.7618  0.8798  -0.9561   0.0000   0.4730
   1.000   0.7536   0.01833   0.01285  -0.1548  0.7575  0.9456  -1.0030   0.0000   0.4529
   1.500   0.8118   0.01821   0.01265  -0.1556  0.7455  0.9957  -1.0583   0.0000   0.4384
   2.500   0.9498   0.01739   0.01160  -0.1605  0.7295  0.9957  -1.1950   0.0000   0.4141
   3.000   1.0078   0.01712   0.01128  -0.1609  0.7172  0.9957  -1.2630   0.0000   0.4040
   3.500   1.0669   0.01687   0.01099  -0.1615  0.7059  0.9957  -1.3325   0.0000   0.3950
   4.000   1.1298   0.01638   0.01046  -0.1625  0.6943  0.9957  -1.4063   0.0000   0.3868
   4.500   1.1867   0.01598   0.01005  -0.1625  0.6793  0.9957  -1.4883   0.0000   0.3791
   5.000   1.2391   0.01580   0.00986  -0.1617  0.6626  0.9957  -1.5674   0.0000   0.3719
   5.500   1.2924   0.01565   0.00968  -0.1610  0.6442  0.9957  -1.6498   0.0000   0.3653
   6.000   1.3400   0.01572   0.00973  -0.1594  0.6224  0.9957  -1.7390   0.0000   0.3589
   6.500   1.3838   0.01591   0.00984  -0.1571  0.5960  0.9957  -1.8328   0.0000   0.3526
   7.000   1.4212   0.01637   0.01021  -0.1538  0.5681  0.9957  -1.9227   0.0000   0.3465
   7.500   1.4533   0.01713   0.01091  -0.1497  0.5389  0.9957  -2.0186   0.0000   0.3405
   8.500   1.5037   0.01938   0.01298  -0.1401  0.4775  0.9957  -2.2098   0.0000   0.3290
   9.000   1.5252   0.02082   0.01435  -0.1352  0.4491  0.9957  -2.3220   0.0000   0.3236
   9.500   1.5434   0.02251   0.01604  -0.1303  0.4214  0.9957  -2.5153   0.0000   0.3185
  10.000   1.5598   0.02442   0.01794  -0.1254  0.3946  0.9957  -2.7297   0.0000   0.3136


