XFLR5 v6.06

 Calculated polar for: fab_f_d

 1 1 Reynolds number fixed          Mach number fixed         

 xtrf =   1.000 (top)        1.000 (bottom)
 Mach =   0.000     Re =     0.100 e 6     Ncrit =   9.000

  alpha     CL        CD       CDp       Cm    Top Xtr Bot Xtr   Cpmin    Chinge    XCp    
 ------- -------- --------- --------- -------- ------- ------- -------- --------- ---------
  -8.000  -0.3130   0.11255   0.10822  -0.0454  0.9802  0.1157  -1.5982   0.0000   0.0894
  -7.500  -0.3054   0.10674   0.10244  -0.0480  0.9721  0.1213  -1.6004   0.0000   0.0777
  -7.000  -0.3553   0.10350   0.09937  -0.0526  0.9602  0.1262  -1.8205   0.0000   0.0902
  -6.500  -0.3359   0.09772   0.09358  -0.0523  0.9530  0.1349  -1.7325   0.0000   0.0825
  -6.000  -0.3285   0.08922   0.08506  -0.0654  0.9428  0.1459  -1.8219   0.0000   0.0399
  -5.500  -0.3133   0.08521   0.08109  -0.0588  0.9332  0.1531  -1.6846   0.0000   0.0516
  -5.000  -0.2931   0.07666   0.07241  -0.0700  0.9229  0.1691  -1.7315   0.0000   0.0007
  -4.500  -0.2105   0.05990   0.05477  -0.0967  0.9151  0.1559  -1.8914   0.0000  -0.2236
  -4.000  -0.0853   0.03909   0.03117  -0.1204  0.9103  0.1106  -2.1822   0.0000  -1.1998
  -3.500  -0.0057   0.03697   0.02841  -0.1260  0.9020  0.1269  -1.9342   0.0000  -22.5767
  -3.000   0.0520   0.03607   0.02723  -0.1276  0.8910  0.1458  -1.7129   0.0000   2.7551
  -2.500   0.1159   0.03543   0.02662  -0.1300  0.8797  0.1716  -1.4782   0.0000   1.3914
  -2.000   0.1900   0.03489   0.02613  -0.1339  0.8697  0.2136  -1.2388   0.0000   0.9647
  -1.500   0.2568   0.03453   0.02605  -0.1367  0.8588  0.2807  -1.0319   0.0000   0.7881
  -1.000   0.3133   0.03437   0.02647  -0.1379  0.8459  0.3972  -0.8571   0.0000   0.6937
  -0.500   0.3584   0.03400   0.02746  -0.1352  0.8327  0.7237  -0.7088   0.0000   0.6292
   0.000   0.3700   0.03374   0.02744  -0.1245  0.8167  0.9964  -0.6567   0.0000   0.5872
   0.500   0.4347   0.03464   0.02791  -0.1273  0.8024  0.9964  -0.7006   0.0000   0.5422
   1.000   0.4949   0.03554   0.02850  -0.1290  0.7879  0.9964  -0.7480   0.0000   0.5090
   1.500   0.5553   0.03624   0.02898  -0.1303  0.7730  0.9964  -0.7971   0.0000   0.4821
   2.000   0.6170   0.03668   0.02924  -0.1314  0.7580  0.9964  -0.8502   0.0000   0.4596
   2.500   0.6756   0.03715   0.02960  -0.1320  0.7431  0.9964  -0.9085   0.0000   0.4412
   3.000   0.7329   0.03755   0.02992  -0.1323  0.7283  0.9964  -0.9679   0.0000   0.4256
   3.500   0.7943   0.03740   0.02973  -0.1326  0.7136  0.9964  -1.0339   0.0000   0.4113
   4.500   0.9153   0.03657   0.02892  -0.1322  0.6845  0.9964  -1.1816   0.0000   0.3875
   5.500   1.0818   0.03147   0.02397  -0.1352  0.6675  0.9964  -1.4032   0.0000   0.3667
   6.000   1.1153   0.03195   0.02456  -0.1315  0.6442  0.9964  -1.4763   0.0000   0.3588
   7.000   1.2834   0.02695   0.01982  -0.1353  0.6125  0.9964  -1.7764   0.0000   0.3450
   7.500   1.3464   0.02601   0.01896  -0.1351  0.5863  0.9964  -1.9284   0.0000   0.3391
   8.000   1.4077   0.02541   0.01838  -0.1348  0.5552  0.9964  -2.1712   0.0000   0.3337
   8.500   1.4630   0.02540   0.01830  -0.1338  0.5204  0.9964  -2.4978   0.0000   0.3286
   9.000   1.4914   0.02643   0.01936  -0.1291  0.4847  0.9964  -2.7596   0.0000   0.3228
   9.500   1.5238   0.02749   0.02036  -0.1251  0.4493  0.9964  -3.1122   0.0000   0.3175
  10.000   1.5461   0.02899   0.02183  -0.1199  0.4151  0.9964  -3.4851   0.0000   0.3122


