XFLR5 v6.06

 Calculated polar for: fab_b_h

 1 1 Reynolds number fixed          Mach number fixed         

 xtrf =   1.000 (top)        1.000 (bottom)
 Mach =   0.000     Re =     0.400 e 6     Ncrit =   9.000

  alpha     CL        CD       CDp       Cm    Top Xtr Bot Xtr   Cpmin    Chinge    XCp    
 ------- -------- --------- --------- -------- ------- ------- -------- --------- ---------
  -7.500  -0.2461   0.01564   0.00979  -0.1412  0.9444  0.0062  -5.9792   0.0000  -0.3426
  -6.500  -0.1181   0.01328   0.00710  -0.1458  0.9328  0.0165  -4.6267   0.0000  -1.0158
  -6.000  -0.0474   0.01246   0.00617  -0.1492  0.9291  0.0235  -3.9027   0.0000  -2.9701
  -5.500   0.0088   0.01185   0.00551  -0.1496  0.9196  0.0308  -3.2801   0.0000  17.5672
  -5.000   0.0741   0.01119   0.00482  -0.1518  0.9135  0.0446  -2.6424   0.0000   2.3354
  -4.500   0.1317   0.01069   0.00436  -0.1524  0.9042  0.0693  -2.0751   0.0000   1.4256
  -4.000   0.1898   0.01027   0.00396  -0.1531  0.8947  0.0960  -1.6598   0.0000   1.0677
  -3.500   0.2521   0.00979   0.00357  -0.1546  0.8866  0.1402  -1.3538   0.0000   0.8704
  -3.000   0.3064   0.00939   0.00339  -0.1546  0.8757  0.2092  -1.0920   0.0000   0.7596
  -2.500   0.3626   0.00898   0.00324  -0.1550  0.8652  0.3031  -0.8392   0.0000   0.6807
  -2.000   0.4208   0.00862   0.00310  -0.1556  0.8555  0.3979  -0.6093   0.0000   0.6219
  -1.500   0.4769   0.00829   0.00304  -0.1558  0.8447  0.5109  -0.6387   0.0000   0.5778
  -1.000   0.5304   0.00802   0.00308  -0.1552  0.8324  0.6316  -0.6740   0.0000   0.5430
  -0.500   0.5833   0.00789   0.00316  -0.1543  0.8205  0.7266  -0.7131   0.0000   0.5142
   0.000   0.6346   0.00782   0.00321  -0.1528  0.8074  0.7997  -0.7535   0.0000   0.4899
   0.500   0.6843   0.00780   0.00324  -0.1511  0.7941  0.8531  -0.7981   0.0000   0.4692
   1.000   0.7280   0.00773   0.00323  -0.1478  0.7794  0.9086  -0.8435   0.0000   0.4510
   1.500   0.7804   0.00756   0.00308  -0.1466  0.7633  0.9976  -0.8988   0.0000   0.4353
   2.000   0.8367   0.00768   0.00311  -0.1469  0.7456  0.9976  -0.9622   0.0000   0.4224
   2.500   0.8918   0.00781   0.00317  -0.1468  0.7263  0.9976  -1.0324   0.0000   0.4109
   3.000   0.9441   0.00798   0.00330  -0.1461  0.7037  0.9976  -1.1108   0.0000   0.4005
   3.500   0.9956   0.00820   0.00345  -0.1452  0.6777  0.9976  -1.2004   0.0000   0.3910
   4.000   1.0452   0.00848   0.00367  -0.1439  0.6475  0.9976  -1.3031   0.0000   0.3823
   4.500   1.0925   0.00887   0.00395  -0.1422  0.6110  0.9976  -1.4223   0.0000   0.3742
   5.000   1.1377   0.00935   0.00432  -0.1401  0.5698  0.9976  -1.5733   0.0000   0.3666
   5.500   1.1800   0.00999   0.00481  -0.1375  0.5233  0.9976  -1.8190   0.0000   0.3593
   6.000   1.2171   0.01083   0.00542  -0.1340  0.4638  0.9976  -2.0959   0.0000   0.3523
   7.000   1.2763   0.01321   0.00711  -0.1249  0.3201  0.9976  -2.9284   0.0000   0.3387
   7.500   1.3019   0.01472   0.00823  -0.1200  0.2477  0.9976  -3.4133   0.0000   0.3324
   8.000   1.3244   0.01646   0.00956  -0.1149  0.1753  0.9976  -3.8989   0.0000   0.3263
   8.500   1.3498   0.01807   0.01095  -0.1104  0.1287  0.9976  -4.4189   0.0000   0.3206
   9.000   1.3740   0.01979   0.01250  -0.1060  0.0916  0.9976  -4.9475   0.0000   0.3152
   9.500   1.3950   0.02175   0.01431  -0.1014  0.0592  0.9976  -5.4687   0.0000   0.3100
  10.000   1.4139   0.02393   0.01638  -0.0968  0.0356  0.9976  -5.9840   0.0000   0.3051


