XFLR5 v6.06

 Calculated polar for: fab_h_b

 1 1 Reynolds number fixed          Mach number fixed         

 xtrf =   1.000 (top)        1.000 (bottom)
 Mach =   0.000     Re =     0.100 e 6     Ncrit =   9.000

  alpha     CL        CD       CDp       Cm    Top Xtr Bot Xtr   Cpmin    Chinge    XCp    
 ------- -------- --------- --------- -------- ------- ------- -------- --------- ---------
  -8.000  -0.2427   0.11375   0.10930  -0.0627  0.9515  0.1195  -1.5810   0.0000  -0.0323
  -7.500  -0.2293   0.10836   0.10392  -0.0636  0.9450  0.1254  -1.5390   0.0000  -0.0514
  -7.000  -0.2864   0.10732   0.10305  -0.0596  0.9359  0.1291  -1.6934   0.0000   0.0243
  -6.500  -0.2692   0.10171   0.09745  -0.0616  0.9292  0.1380  -1.6411   0.0000   0.0036
  -6.000  -0.2901   0.09772   0.09355  -0.0580  0.9197  0.1415  -1.6639   0.0000   0.0348
  -5.500  -0.3000   0.09124   0.08709  -0.0654  0.9116  0.1505  -1.7503   0.0000   0.0187
  -5.000  -0.2879   0.08518   0.08099  -0.0692  0.9047  0.1618  -1.7254   0.0000  -0.0032
  -4.500  -0.2676   0.07980   0.07555  -0.0713  0.8959  0.1747  -1.6549   0.0000  -0.0291
  -4.000  -0.1040   0.04795   0.04105  -0.1198  0.8886  0.1088  -2.1339   0.0000  -0.9381
  -3.500  -0.0332   0.04411   0.03629  -0.1253  0.8772  0.1164  -1.9884   0.0000  -3.6365
  -3.000   0.0388   0.04218   0.03361  -0.1296  0.8652  0.1299  -1.8046   0.0000   3.6708
  -2.500   0.1050   0.04143   0.03265  -0.1324  0.8536  0.1482  -1.5957   0.0000   1.5368
  -2.000   0.1874   0.04080   0.03197  -0.1374  0.8446  0.1764  -1.3630   0.0000   0.9958
  -1.500   0.2397   0.04073   0.03188  -0.1379  0.8313  0.2099  -1.1954   0.0000   0.8331
  -1.000   0.2945   0.04075   0.03216  -0.1387  0.8180  0.2624  -1.0238   0.0000   0.7260
  -0.500   0.3560   0.04053   0.03245  -0.1404  0.8038  0.3621  -0.8489   0.0000   0.6469
   0.000   0.3999   0.03999   0.03352  -0.1375  0.7902  0.7338  -0.7075   0.0000   0.5950
   0.500   0.4071   0.03989   0.03359  -0.1267  0.7749  0.9957  -0.7198   0.0000   0.5611
   1.000   0.4657   0.04102   0.03432  -0.1285  0.7606  0.9957  -0.7644   0.0000   0.5245
   1.500   0.5254   0.04185   0.03485  -0.1298  0.7458  0.9957  -0.8138   0.0000   0.4945
   2.000   0.5849   0.04248   0.03524  -0.1308  0.7309  0.9957  -0.8654   0.0000   0.4701
   2.500   0.6404   0.04320   0.03580  -0.1313  0.7163  0.9957  -0.9149   0.0000   0.4505
   3.000   0.6937   0.04396   0.03643  -0.1314  0.7018  0.9957  -0.9703   0.0000   0.4341
   3.500   0.7491   0.04437   0.03674  -0.1314  0.6872  0.9957  -1.0309   0.0000   0.4193
   4.000   0.8069   0.04430   0.03661  -0.1312  0.6725  0.9957  -1.0954   0.0000   0.4057
   4.500   0.8622   0.04432   0.03660  -0.1308  0.6581  0.9957  -1.1581   0.0000   0.3940
   5.500   0.9709   0.04395   0.03627  -0.1293  0.6294  0.9957  -1.3036   0.0000   0.3740
   6.000   1.0638   0.04011   0.03246  -0.1309  0.6258  0.9957  -1.4244   0.0000   0.3631
   8.000   1.3593   0.03086   0.02358  -0.1324  0.5706  0.9957  -1.9262   0.0000   0.3343
   8.500   1.4215   0.03000   0.02277  -0.1322  0.5468  0.9957  -2.0665   0.0000   0.3291
   9.000   1.4895   0.02923   0.02198  -0.1329  0.5204  0.9957  -2.2319   0.0000   0.3245
   9.500   1.5338   0.02971   0.02241  -0.1307  0.4905  0.9957  -2.4341   0.0000   0.3196
  10.000   1.5691   0.03072   0.02341  -0.1276  0.4616  0.9957  -2.7018   0.0000   0.3148


