XFLR5 v6.06

 Calculated polar for: fab_b_h

 1 1 Reynolds number fixed          Mach number fixed         

 xtrf =   1.000 (top)        1.000 (bottom)
 Mach =   0.000     Re =     0.100 e 6     Ncrit =   9.000

  alpha     CL        CD       CDp       Cm    Top Xtr Bot Xtr   Cpmin    Chinge    XCp    
 ------- -------- --------- --------- -------- ------- ------- -------- --------- ---------
  -8.000  -0.3926   0.10675   0.10246  -0.0281  1.0024  0.1019  -2.0523   0.0000   0.1701
  -7.500  -0.4103   0.10285   0.09870  -0.0243  1.0024  0.1079  -2.1084   0.0000   0.1834
  -7.000  -0.4549   0.10033   0.09637  -0.0209  1.0024  0.1101  -2.2449   0.0000   0.1978
  -6.500  -0.4667   0.09530   0.09144  -0.0187  1.0024  0.1172  -2.2900   0.0000   0.2044
  -6.000  -0.4785   0.08915   0.08539  -0.0214  1.0024  0.1260  -2.3797   0.0000   0.2003
  -5.500  -0.4597   0.08061   0.07683  -0.0287  0.9981  0.1389  -2.4116   0.0000   0.1829
  -5.000  -0.4080   0.07091   0.06695  -0.0422  0.9870  0.1612  -2.3402   0.0000   0.1416
  -4.500  -0.3184   0.05282   0.04805  -0.0707  0.9775  0.1491  -2.4618   0.0000   0.0217
  -4.000  -0.1760   0.03035   0.02203  -0.0956  0.9762  0.0924  -2.7651   0.0000  -0.3061
  -3.500  -0.0882   0.02824   0.01947  -0.1024  0.9688  0.1177  -2.2208   0.0000  -0.9343
  -3.000  -0.0169   0.02706   0.01837  -0.1065  0.9581  0.1646  -1.7868   0.0000  -6.1427
  -2.500   0.0553   0.02633   0.01783  -0.1107  0.9473  0.2339  -1.5027   0.0000   2.2778
  -2.000   0.1297   0.02569   0.01766  -0.1153  0.9365  0.3490  -1.2256   0.0000   1.1487
  -1.500   0.2050   0.02515   0.01798  -0.1196  0.9260  0.5513  -0.9404   0.0000   0.8379
  -1.000   0.2561   0.02505   0.01854  -0.1172  0.9131  0.7788  -0.7244   0.0000   0.7103
  -0.500   0.2829   0.02493   0.01849  -0.1108  0.8948  0.9976  -0.5701   0.0000   0.6429
   0.000   0.3562   0.02556   0.01869  -0.1153  0.8803  0.9976  -0.5689   0.0000   0.5736
   0.500   0.4251   0.02610   0.01894  -0.1184  0.8648  0.9976  -0.6169   0.0000   0.5277
   1.000   0.4921   0.02659   0.01922  -0.1210  0.8492  0.9976  -0.6671   0.0000   0.4941
   1.500   0.5591   0.02690   0.01940  -0.1231  0.8334  0.9976  -0.7229   0.0000   0.4679
   2.000   0.6276   0.02696   0.01938  -0.1251  0.8177  0.9976  -0.7855   0.0000   0.4464
   2.500   0.6954   0.02684   0.01923  -0.1267  0.8022  0.9976  -0.8534   0.0000   0.4287
   3.000   0.7657   0.02627   0.01871  -0.1281  0.7870  0.9976  -0.9327   0.0000   0.4132
   3.500   0.8391   0.02540   0.01791  -0.1297  0.7720  0.9976  -1.0246   0.0000   0.4000
   4.000   0.9129   0.02426   0.01689  -0.1310  0.7563  0.9976  -1.1330   0.0000   0.3884
   4.500   0.9732   0.02358   0.01635  -0.1302  0.7347  0.9976  -1.2439   0.0000   0.3782
   5.000   1.0454   0.02225   0.01519  -0.1310  0.7139  0.9976  -1.3926   0.0000   0.3691
   5.500   1.1087   0.02129   0.01439  -0.1304  0.6866  0.9976  -1.5687   0.0000   0.3608
   6.000   1.1732   0.02035   0.01355  -0.1300  0.6540  0.9976  -1.8906   0.0000   0.3533
   6.500   1.2243   0.02008   0.01338  -0.1277  0.6121  0.9976  -2.2101   0.0000   0.3461
   7.000   1.2723   0.02015   0.01343  -0.1250  0.5632  0.9976  -2.5586   0.0000   0.3393
   7.500   1.3084   0.02080   0.01403  -0.1206  0.5068  0.9976  -3.0824   0.0000   0.3326
   8.000   1.3367   0.02188   0.01496  -0.1152  0.4465  0.9976  -3.5898   0.0000   0.3259
   8.500   1.3550   0.02336   0.01630  -0.1086  0.3851  0.9976  -4.0550   0.0000   0.3191
   9.000   1.3632   0.02522   0.01799  -0.1008  0.3251  0.9976  -4.4693   0.0000   0.3121
   9.500   1.3640   0.02760   0.02016  -0.0928  0.2655  0.9976  -4.8421   0.0000   0.3055
  10.000   1.3622   0.03061   0.02296  -0.0855  0.2103  0.9976  -5.1945   0.0000   0.2994


