XFLR5 v6.06

 Calculated polar for: fab_f_d

 1 1 Reynolds number fixed          Mach number fixed         

 xtrf =   1.000 (top)        1.000 (bottom)
 Mach =   0.000     Re =     0.450 e 6     Ncrit =   9.000

  alpha     CL        CD       CDp       Cm    Top Xtr Bot Xtr   Cpmin    Chinge    XCp    
 ------- -------- --------- --------- -------- ------- ------- -------- --------- ---------
  -8.000  -0.1345   0.01648   0.01046  -0.1709  0.8611  0.0339  -4.1905   0.0000  -1.0681
  -7.500  -0.0800   0.01543   0.00924  -0.1715  0.8559  0.0371  -3.7981   0.0000  -1.9663
  -7.000  -0.0271   0.01452   0.00824  -0.1716  0.8496  0.0410  -3.4159   0.0000  -6.2946
  -6.500   0.0292   0.01374   0.00739  -0.1722  0.8441  0.0456  -3.0298   0.0000   6.3200
  -6.000   0.0831   0.01315   0.00671  -0.1723  0.8380  0.0518  -2.6911   0.0000   2.3786
  -5.500   0.1386   0.01252   0.00607  -0.1727  0.8325  0.0592  -2.3567   0.0000   1.5255
  -5.000   0.1962   0.01201   0.00551  -0.1734  0.8275  0.0688  -2.0498   0.0000   1.1529
  -4.500   0.2499   0.01157   0.00509  -0.1733  0.8208  0.0803  -1.7669   0.0000   0.9567
  -4.000   0.3082   0.01117   0.00465  -0.1740  0.8149  0.0951  -1.4972   0.0000   0.8239
  -3.500   0.3629   0.01084   0.00440  -0.1741  0.8088  0.1160  -1.2594   0.0000   0.7366
  -3.000   0.4199   0.01050   0.00415  -0.1745  0.8025  0.1503  -1.0422   0.0000   0.6706
  -2.500   0.4765   0.01023   0.00399  -0.1749  0.7958  0.1960  -0.8471   0.0000   0.6205
  -2.000   0.5325   0.00995   0.00387  -0.1752  0.7888  0.2548  -0.7704   0.0000   0.5812
  -1.500   0.5901   0.00963   0.00378  -0.1758  0.7820  0.3417  -0.8084   0.0000   0.5491
  -1.000   0.6458   0.00922   0.00375  -0.1761  0.7740  0.4755  -0.8464   0.0000   0.5230
  -0.500   0.7011   0.00881   0.00386  -0.1761  0.7664  0.6653  -0.8898   0.0000   0.5006
   0.000   0.7548   0.00874   0.00393  -0.1753  0.7577  0.7560  -0.9325   0.0000   0.4810
   0.500   0.8061   0.00876   0.00402  -0.1741  0.7483  0.8038  -0.9790   0.0000   0.4640
   1.000   0.8591   0.00875   0.00399  -0.1731  0.7395  0.8394  -1.0295   0.0000   0.4489
   1.500   0.9080   0.00870   0.00398  -0.1714  0.7277  0.8670  -1.0815   0.0000   0.4354
   2.000   0.9545   0.00866   0.00400  -0.1692  0.7160  0.8970  -1.1380   0.0000   0.4233
   2.500   0.9954   0.00854   0.00393  -0.1657  0.7023  0.9307  -1.1928   0.0000   0.4118
   3.000   1.0452   0.00842   0.00383  -0.1643  0.6864  0.9964  -1.2543   0.0000   0.4019
   3.500   1.1015   0.00858   0.00394  -0.1648  0.6697  0.9964  -1.3289   0.0000   0.3936
   4.000   1.1543   0.00879   0.00409  -0.1644  0.6491  0.9964  -1.4052   0.0000   0.3858
   4.500   1.2037   0.00909   0.00430  -0.1633  0.6239  0.9964  -1.4805   0.0000   0.3784
   5.000   1.2499   0.00948   0.00461  -0.1616  0.5949  0.9964  -1.5694   0.0000   0.3713
   5.500   1.2930   0.00999   0.00502  -0.1594  0.5640  0.9964  -1.6599   0.0000   0.3646
   6.000   1.3309   0.01064   0.00555  -0.1562  0.5266  0.9964  -1.7571   0.0000   0.3579
   6.500   1.3638   0.01141   0.00618  -0.1521  0.4931  0.9964  -1.8569   0.0000   0.3514
   7.000   1.3956   0.01226   0.00694  -0.1479  0.4591  0.9964  -1.9666   0.0000   0.3451
   7.500   1.4242   0.01327   0.00785  -0.1435  0.4245  0.9964  -2.1304   0.0000   0.3391
   8.000   1.4508   0.01444   0.00893  -0.1389  0.3915  0.9964  -2.3766   0.0000   0.3333
   8.500   1.4752   0.01583   0.01023  -0.1343  0.3599  0.9964  -2.7068   0.0000   0.3278
   9.000   1.4983   0.01740   0.01171  -0.1299  0.3271  0.9964  -3.0835   0.0000   0.3227
   9.500   1.5198   0.01920   0.01343  -0.1256  0.2941  0.9964  -3.4689   0.0000   0.3177
  10.000   1.5368   0.02139   0.01548  -0.1210  0.2596  0.9964  -3.8461   0.0000   0.3130


