XFLR5 v6.06

 Calculated polar for: fab_h_b

 1 1 Reynolds number fixed          Mach number fixed         

 xtrf =   1.000 (top)        1.000 (bottom)
 Mach =   0.000     Re =     0.600 e 6     Ncrit =   9.000

  alpha     CL        CD       CDp       Cm    Top Xtr Bot Xtr   Cpmin    Chinge    XCp    
 ------- -------- --------- --------- -------- ------- ------- -------- --------- ---------
  -8.000  -0.0837   0.01476   0.00884  -0.1796  0.8160  0.0349  -4.0572   0.0000  -1.9838
  -7.500  -0.0295   0.01397   0.00793  -0.1799  0.8117  0.0375  -3.6506   0.0000  -6.0834
  -7.000   0.0259   0.01333   0.00720  -0.1803  0.8068  0.0405  -3.2777   0.0000   7.4593
  -6.500   0.0827   0.01273   0.00651  -0.1810  0.8028  0.0441  -2.9330   0.0000   2.5078
  -6.000   0.1387   0.01218   0.00594  -0.1815  0.7990  0.0485  -2.6184   0.0000   1.5966
  -5.500   0.1939   0.01166   0.00543  -0.1817  0.7942  0.0540  -2.3200   0.0000   1.2121
  -5.000   0.2513   0.01122   0.00493  -0.1823  0.7894  0.0614  -2.0432   0.0000   0.9927
  -4.500   0.3089   0.01085   0.00455  -0.1830  0.7852  0.0703  -1.7767   0.0000   0.8549
  -4.000   0.3641   0.01049   0.00425  -0.1831  0.7800  0.0810  -1.5394   0.0000   0.7621
  -3.500   0.4218   0.01018   0.00394  -0.1836  0.7750  0.0956  -1.3093   0.0000   0.6922
  -3.000   0.4795   0.00989   0.00371  -0.1842  0.7701  0.1191  -1.0977   0.0000   0.6392
  -2.500   0.5350   0.00962   0.00356  -0.1843  0.7640  0.1525  -0.9061   0.0000   0.5981
  -2.000   0.5935   0.00937   0.00338  -0.1850  0.7585  0.1937  -0.8607   0.0000   0.5640
  -1.500   0.6490   0.00916   0.00333  -0.1852  0.7524  0.2458  -0.8985   0.0000   0.5365
  -1.000   0.7063   0.00885   0.00321  -0.1857  0.7456  0.3240  -0.9376   0.0000   0.5131
  -0.500   0.7631   0.00847   0.00321  -0.1863  0.7388  0.4592  -0.9829   0.0000   0.4935
   0.000   0.8188   0.00800   0.00333  -0.1865  0.7314  0.6829  -1.0284   0.0000   0.4763
   0.500   0.8723   0.00797   0.00341  -0.1859  0.7232  0.7551  -1.0753   0.0000   0.4608
   1.000   0.9260   0.00797   0.00342  -0.1852  0.7143  0.7927  -1.1298   0.0000   0.4470
   1.500   0.9772   0.00801   0.00351  -0.1841  0.7044  0.8201  -1.1829   0.0000   0.4347
   2.000   1.0283   0.00805   0.00356  -0.1831  0.6930  0.8429  -1.2418   0.0000   0.4235
   2.500   1.0781   0.00809   0.00360  -0.1817  0.6795  0.8609  -1.3047   0.0000   0.4134
   3.000   1.1259   0.00816   0.00370  -0.1800  0.6652  0.8807  -1.3668   0.0000   0.4040
   3.500   1.1712   0.00825   0.00381  -0.1778  0.6481  0.9027  -1.4274   0.0000   0.3952
   4.000   1.2108   0.00836   0.00392  -0.1744  0.6286  0.9309  -1.4889   0.0000   0.3867
   4.500   1.2523   0.00850   0.00406  -0.1716  0.6047  0.9957  -1.5588   0.0000   0.3790
   5.000   1.2982   0.00897   0.00441  -0.1701  0.5761  0.9957  -1.6329   0.0000   0.3723
   5.500   1.3385   0.00954   0.00486  -0.1675  0.5456  0.9957  -1.7050   0.0000   0.3656
   6.000   1.3738   0.01021   0.00541  -0.1639  0.5168  0.9957  -1.7864   0.0000   0.3591
   6.500   1.4060   0.01103   0.00611  -0.1600  0.4861  0.9957  -1.8691   0.0000   0.3527
   7.000   1.4352   0.01200   0.00696  -0.1556  0.4543  0.9957  -1.9505   0.0000   0.3466
   7.500   1.4637   0.01308   0.00796  -0.1515  0.4268  0.9957  -2.0452   0.0000   0.3409
   8.000   1.4906   0.01435   0.00915  -0.1474  0.3991  0.9957  -2.1416   0.0000   0.3354
   8.500   1.5144   0.01589   0.01060  -0.1432  0.3724  0.9957  -2.2376   0.0000   0.3302
   9.000   1.5397   0.01748   0.01213  -0.1394  0.3466  0.9957  -2.3727   0.0000   0.3253
   9.500   1.5641   0.01920   0.01382  -0.1358  0.3230  0.9957  -2.6086   0.0000   0.3207
  10.000   1.5851   0.02120   0.01576  -0.1319  0.2999  0.9957  -2.8414   0.0000   0.3162


