XFLR5 v6.06

 Calculated polar for: fab_h_b

 1 1 Reynolds number fixed          Mach number fixed         

 xtrf =   1.000 (top)        1.000 (bottom)
 Mach =   0.000     Re =     0.350 e 6     Ncrit =   9.000

  alpha     CL        CD       CDp       Cm    Top Xtr Bot Xtr   Cpmin    Chinge    XCp    
 ------- -------- --------- --------- -------- ------- ------- -------- --------- ---------
  -8.000  -0.0853   0.02089   0.01489  -0.1791  0.8473  0.0419  -3.8666   0.0000  -1.9350
  -7.500  -0.0329   0.01934   0.01299  -0.1798  0.8428  0.0451  -3.5135   0.0000  -5.4135
  -7.000   0.0173   0.01811   0.01152  -0.1796  0.8369  0.0485  -3.1909   0.0000  10.9730
  -6.500   0.0723   0.01708   0.01033  -0.1800  0.8322  0.0526  -2.8711   0.0000   2.8215
  -6.000   0.1261   0.01626   0.00945  -0.1802  0.8278  0.0574  -2.5726   0.0000   1.7220
  -5.500   0.1777   0.01556   0.00875  -0.1799  0.8221  0.0632  -2.3029   0.0000   1.2900
  -5.000   0.2344   0.01493   0.00802  -0.1804  0.8177  0.0716  -2.0383   0.0000   1.0386
  -4.500   0.2885   0.01445   0.00759  -0.1804  0.8122  0.0814  -1.7891   0.0000   0.8893
  -4.000   0.3428   0.01399   0.00715  -0.1804  0.8057  0.0935  -1.5590   0.0000   0.7866
  -3.000   0.4536   0.01335   0.00663  -0.1809  0.7951  0.1347  -1.1342   0.0000   0.6544
  -2.500   0.5119   0.01294   0.00630  -0.1815  0.7891  0.1727  -0.9387   0.0000   0.6087
  -2.000   0.5684   0.01269   0.00619  -0.1820  0.7834  0.2208  -0.8410   0.0000   0.5728
  -1.500   0.6239   0.01235   0.00607  -0.1822  0.7762  0.2916  -0.8786   0.0000   0.5435
  -1.000   0.6862   0.01184   0.00589  -0.1839  0.7711  0.4272  -0.9210   0.0000   0.5184
  -0.500   0.7362   0.01131   0.00614  -0.1829  0.7624  0.6648  -0.9622   0.0000   0.4980
   0.000   0.7937   0.01121   0.00612  -0.1826  0.7568  0.7686  -1.0089   0.0000   0.4787
   0.500   0.8399   0.01125   0.00623  -0.1803  0.7471  0.8145  -1.0505   0.0000   0.4625
   1.000   0.8904   0.01119   0.00617  -0.1787  0.7395  0.8499  -1.1024   0.0000   0.4478
   1.500   0.9375   0.01103   0.00603  -0.1764  0.7302  0.8789  -1.1529   0.0000   0.4345
   2.000   0.9808   0.01087   0.00590  -0.1735  0.7193  0.9059  -1.2035   0.0000   0.4225
   2.500   1.0207   0.01062   0.00568  -0.1697  0.7094  0.9401  -1.2590   0.0000   0.4112
   3.000   1.0778   0.01037   0.00539  -0.1699  0.6978  0.9957  -1.3273   0.0000   0.4019
   3.500   1.1342   0.01039   0.00538  -0.1704  0.6829  0.9957  -1.3955   0.0000   0.3937
   4.000   1.1874   0.01051   0.00548  -0.1702  0.6665  0.9957  -1.4651   0.0000   0.3861
   4.500   1.2382   0.01067   0.00562  -0.1696  0.6476  0.9957  -1.5423   0.0000   0.3790
   5.000   1.2879   0.01092   0.00578  -0.1686  0.6268  0.9957  -1.6195   0.0000   0.3722
   5.500   1.3301   0.01130   0.00611  -0.1662  0.6002  0.9957  -1.6932   0.0000   0.3655
   6.000   1.3680   0.01182   0.00653  -0.1630  0.5714  0.9957  -1.7764   0.0000   0.3590
   6.500   1.4008   0.01249   0.00712  -0.1590  0.5425  0.9957  -1.8595   0.0000   0.3525
   7.000   1.4301   0.01337   0.00788  -0.1545  0.5126  0.9957  -1.9407   0.0000   0.3463
   7.500   1.4548   0.01448   0.00888  -0.1495  0.4812  0.9957  -2.0296   0.0000   0.3402
   8.000   1.4779   0.01576   0.01009  -0.1447  0.4517  0.9957  -2.1204   0.0000   0.3345
   8.500   1.5006   0.01724   0.01151  -0.1401  0.4241  0.9957  -2.2143   0.0000   0.3291
   9.000   1.5213   0.01894   0.01316  -0.1356  0.3967  0.9957  -2.3255   0.0000   0.3240
   9.500   1.5403   0.02087   0.01504  -0.1312  0.3709  0.9957  -2.5264   0.0000   0.3191
  10.000   1.5594   0.02292   0.01705  -0.1271  0.3463  0.9957  -2.7501   0.0000   0.3145


