XFLR5 v6.06

 Calculated polar for: fab_f_d

 1 1 Reynolds number fixed          Mach number fixed         

 xtrf =   1.000 (top)        1.000 (bottom)
 Mach =   0.000     Re =     0.350 e 6     Ncrit =   9.000

  alpha     CL        CD       CDp       Cm    Top Xtr Bot Xtr   Cpmin    Chinge    XCp    
 ------- -------- --------- --------- -------- ------- ------- -------- --------- ---------
  -8.000  -0.1366   0.01942   0.01327  -0.1708  0.8784  0.0374  -4.0867   0.0000  -1.0474
  -7.500  -0.0817   0.01793   0.01152  -0.1716  0.8729  0.0407  -3.7215   0.0000  -1.9232
  -7.000  -0.0310   0.01684   0.01035  -0.1715  0.8663  0.0448  -3.3598   0.0000  -5.4586
  -6.500   0.0238   0.01585   0.00927  -0.1719  0.8602  0.0497  -2.9919   0.0000   7.6749
  -6.000   0.0782   0.01508   0.00831  -0.1720  0.8542  0.0563  -2.6692   0.0000   2.5090
  -5.500   0.1313   0.01433   0.00760  -0.1720  0.8479  0.0639  -2.3475   0.0000   1.5924
  -5.000   0.1899   0.01368   0.00689  -0.1729  0.8430  0.0742  -2.0456   0.0000   1.1809
  -4.500   0.2411   0.01324   0.00648  -0.1724  0.8358  0.0862  -1.7730   0.0000   0.9792
  -4.000   0.2995   0.01273   0.00593  -0.1731  0.8296  0.1021  -1.5078   0.0000   0.8381
  -3.500   0.3529   0.01237   0.00567  -0.1730  0.8226  0.1238  -1.2739   0.0000   0.7476
  -3.000   0.4100   0.01199   0.00538  -0.1735  0.8167  0.1595  -1.0573   0.0000   0.6786
  -2.500   0.4660   0.01169   0.00521  -0.1738  0.8096  0.2084  -0.8630   0.0000   0.6267
  -2.000   0.5227   0.01135   0.00505  -0.1743  0.8023  0.2750  -0.7627   0.0000   0.5858
  -1.500   0.5794   0.01104   0.00502  -0.1748  0.7955  0.3790  -0.7999   0.0000   0.5531
  -1.000   0.6358   0.01051   0.00500  -0.1752  0.7873  0.5497  -0.8385   0.0000   0.5260
  -0.500   0.6874   0.01028   0.00523  -0.1741  0.7790  0.7174  -0.8797   0.0000   0.5028
   0.000   0.7415   0.01023   0.00522  -0.1732  0.7712  0.7868  -0.9227   0.0000   0.4824
   0.500   0.7888   0.01024   0.00529  -0.1709  0.7610  0.8335  -0.9666   0.0000   0.4648
   1.000   0.8397   0.01019   0.00522  -0.1694  0.7523  0.8692  -1.0155   0.0000   0.4492
   1.500   0.8850   0.01003   0.00509  -0.1667  0.7417  0.9018  -1.0644   0.0000   0.4351
   2.000   0.9225   0.00981   0.00492  -0.1623  0.7293  0.9438  -1.1141   0.0000   0.4220
   2.500   0.9812   0.00970   0.00481  -0.1631  0.7172  0.9964  -1.1807   0.0000   0.4116
   3.000   1.0388   0.00971   0.00477  -0.1636  0.7022  0.9964  -1.2473   0.0000   0.4023
   3.500   1.0941   0.00978   0.00479  -0.1638  0.6859  0.9964  -1.3208   0.0000   0.3937
   4.000   1.1482   0.00991   0.00487  -0.1636  0.6683  0.9964  -1.3981   0.0000   0.3859
   4.500   1.1973   0.01011   0.00506  -0.1624  0.6454  0.9964  -1.4725   0.0000   0.3783
   5.000   1.2445   0.01041   0.00530  -0.1608  0.6187  0.9964  -1.5622   0.0000   0.3712
   5.500   1.2888   0.01083   0.00564  -0.1587  0.5896  0.9964  -1.6537   0.0000   0.3645
   6.000   1.3289   0.01140   0.00611  -0.1559  0.5566  0.9964  -1.7527   0.0000   0.3579
   6.500   1.3629   0.01214   0.00670  -0.1519  0.5206  0.9964  -1.8536   0.0000   0.3513
   7.000   1.3939   0.01297   0.00744  -0.1475  0.4870  0.9964  -1.9616   0.0000   0.3450
   7.500   1.4215   0.01396   0.00834  -0.1428  0.4523  0.9964  -2.1183   0.0000   0.3388
   8.000   1.4459   0.01517   0.00945  -0.1378  0.4186  0.9964  -2.3552   0.0000   0.3329
   8.500   1.4692   0.01654   0.01075  -0.1329  0.3865  0.9964  -2.6415   0.0000   0.3273
   9.000   1.4910   0.01812   0.01227  -0.1283  0.3541  0.9964  -3.0068   0.0000   0.3220
   9.500   1.5108   0.01995   0.01404  -0.1237  0.3223  0.9964  -3.3779   0.0000   0.3170
  10.000   1.5282   0.02207   0.01608  -0.1192  0.2897  0.9964  -3.7514   0.0000   0.3122


