XFLR5 v6.06

 Calculated polar for: fab_d_f

 1 1 Reynolds number fixed          Mach number fixed         

 xtrf =   1.000 (top)        1.000 (bottom)
 Mach =   0.000     Re =     0.550 e 6     Ncrit =   9.000

  alpha     CL        CD       CDp       Cm    Top Xtr Bot Xtr   Cpmin    Chinge    XCp    
 ------- -------- --------- --------- -------- ------- ------- -------- --------- ---------
  -8.000  -0.1902   0.01303   0.00734  -0.1615  0.8922  0.0195  -5.4952   0.0000  -0.6291
  -7.500  -0.1333   0.01238   0.00654  -0.1624  0.8847  0.0220  -4.8142   0.0000  -1.0073
  -7.000  -0.0788   0.01185   0.00591  -0.1626  0.8764  0.0262  -4.1703   0.0000  -1.8729
  -6.500  -0.0221   0.01130   0.00525  -0.1632  0.8692  0.0307  -3.5511   0.0000  -7.3138
  -6.000   0.0331   0.01080   0.00470  -0.1634  0.8611  0.0373  -2.9706   0.0000   5.2983
  -5.500   0.0901   0.01042   0.00427  -0.1639  0.8545  0.0470  -2.5131   0.0000   2.1097
  -5.000   0.1456   0.01007   0.00390  -0.1641  0.8470  0.0585  -2.1721   0.0000   1.3992
  -4.500   0.2025   0.00976   0.00358  -0.1646  0.8399  0.0727  -1.8407   0.0000   1.0766
  -4.000   0.2579   0.00946   0.00333  -0.1647  0.8316  0.0956  -1.5476   0.0000   0.8982
  -3.500   0.3150   0.00915   0.00310  -0.1652  0.8251  0.1269  -1.2684   0.0000   0.7813
  -3.000   0.3706   0.00883   0.00289  -0.1654  0.8168  0.1693  -1.0192   0.0000   0.7010
  -2.500   0.4271   0.00857   0.00275  -0.1657  0.8090  0.2225  -0.7893   0.0000   0.6412
  -2.000   0.4834   0.00830   0.00264  -0.1660  0.8011  0.2918  -0.6912   0.0000   0.5956
  -1.500   0.5391   0.00802   0.00259  -0.1662  0.7921  0.3822  -0.7272   0.0000   0.5595
  -1.000   0.5960   0.00770   0.00256  -0.1667  0.7836  0.5061  -0.7652   0.0000   0.5299
  -0.500   0.6498   0.00739   0.00265  -0.1663  0.7735  0.6480  -0.8063   0.0000   0.5055
   0.000   0.7036   0.00731   0.00274  -0.1657  0.7634  0.7380  -0.8478   0.0000   0.4844
   0.500   0.7575   0.00732   0.00279  -0.1650  0.7532  0.7961  -0.8966   0.0000   0.4661
   1.000   0.8080   0.00730   0.00285  -0.1637  0.7403  0.8331  -0.9442   0.0000   0.4501
   2.000   0.9045   0.00730   0.00294  -0.1599  0.7120  0.9032  -1.0549   0.0000   0.4232
   3.000   1.0030   0.00732   0.00299  -0.1569  0.6767  0.9970  -1.1844   0.0000   0.4017
   3.500   1.0557   0.00755   0.00313  -0.1565  0.6523  0.9970  -1.2578   0.0000   0.3928
   4.000   1.1065   0.00785   0.00335  -0.1556  0.6252  0.9970  -1.3445   0.0000   0.3846
   4.500   1.1544   0.00824   0.00364  -0.1542  0.5933  0.9970  -1.4365   0.0000   0.3769
   5.000   1.1994   0.00875   0.00401  -0.1522  0.5543  0.9970  -1.5405   0.0000   0.3696
   5.500   1.2421   0.00936   0.00448  -0.1498  0.5160  0.9970  -1.6515   0.0000   0.3627
   6.000   1.2818   0.01008   0.00504  -0.1470  0.4746  0.9970  -1.7943   0.0000   0.3561
   6.500   1.3173   0.01089   0.00569  -0.1434  0.4305  0.9970  -2.0405   0.0000   0.3495
   7.000   1.3474   0.01193   0.00650  -0.1389  0.3761  0.9970  -2.3568   0.0000   0.3431
   7.500   1.3747   0.01314   0.00746  -0.1342  0.3221  0.9970  -2.7851   0.0000   0.3369
   8.000   1.4015   0.01445   0.00855  -0.1296  0.2743  0.9970  -3.2320   0.0000   0.3311
   8.500   1.4250   0.01599   0.00986  -0.1248  0.2247  0.9970  -3.6809   0.0000   0.3254
   9.000   1.4444   0.01786   0.01145  -0.1198  0.1735  0.9970  -4.1233   0.0000   0.3200
   9.500   1.4648   0.01979   0.01319  -0.1152  0.1350  0.9970  -4.5860   0.0000   0.3149
  10.000   1.4839   0.02190   0.01515  -0.1107  0.1030  0.9970  -5.0532   0.0000   0.3101


