XFLR5 v6.06

 Calculated polar for: fab_h_b

 1 1 Reynolds number fixed          Mach number fixed         

 xtrf =   1.000 (top)        1.000 (bottom)
 Mach =   0.000     Re =     0.500 e 6     Ncrit =   9.000

  alpha     CL        CD       CDp       Cm    Top Xtr Bot Xtr   Cpmin    Chinge    XCp    
 ------- -------- --------- --------- -------- ------- ------- -------- --------- ---------
  -8.000  -0.0840   0.01639   0.01027  -0.1794  0.8257  0.0371  -4.0180   0.0000  -1.9717
  -7.500  -0.0302   0.01547   0.00932  -0.1798  0.8210  0.0398  -3.6101   0.0000  -5.9232
  -7.000   0.0258   0.01463   0.00835  -0.1804  0.8167  0.0429  -3.2403   0.0000   7.4844
  -6.500   0.0799   0.01395   0.00762  -0.1807  0.8121  0.0466  -2.9121   0.0000   2.5822
  -6.000   0.1347   0.01331   0.00693  -0.1809  0.8075  0.0511  -2.6050   0.0000   1.6327
  -5.500   0.1917   0.01273   0.00626  -0.1815  0.8033  0.0570  -2.3105   0.0000   1.2220
  -5.000   0.2480   0.01226   0.00580  -0.1820  0.7988  0.0645  -2.0373   0.0000   1.0016
  -4.500   0.3025   0.01180   0.00536  -0.1820  0.7931  0.0737  -1.7815   0.0000   0.8647
  -4.000   0.3606   0.01143   0.00497  -0.1827  0.7885  0.0852  -1.5398   0.0000   0.7662
  -3.500   0.4173   0.01115   0.00472  -0.1831  0.7839  0.1003  -1.3133   0.0000   0.6960
  -3.000   0.4726   0.01080   0.00447  -0.1832  0.7776  0.1246  -1.1073   0.0000   0.6429
  -2.500   0.5319   0.01051   0.00422  -0.1841  0.7728  0.1605  -0.9094   0.0000   0.5998
  -2.000   0.5864   0.01028   0.00414  -0.1841  0.7663  0.2025  -0.8552   0.0000   0.5663
  -1.500   0.6442   0.00998   0.00399  -0.1847  0.7604  0.2610  -0.8943   0.0000   0.5380
  -1.000   0.7014   0.00968   0.00394  -0.1853  0.7542  0.3564  -0.9335   0.0000   0.5144
  -0.500   0.7580   0.00915   0.00391  -0.1859  0.7466  0.5302  -0.9786   0.0000   0.4946
   0.000   0.8128   0.00886   0.00408  -0.1856  0.7399  0.7196  -1.0236   0.0000   0.4769
   0.500   0.8656   0.00884   0.00412  -0.1847  0.7315  0.7752  -1.0699   0.0000   0.4611
   1.000   0.9176   0.00885   0.00416  -0.1837  0.7227  0.8113  -1.1231   0.0000   0.4472
   1.500   0.9702   0.00882   0.00411  -0.1828  0.7137  0.8381  -1.1774   0.0000   0.4346
   2.000   1.0189   0.00882   0.00416  -0.1811  0.7029  0.8608  -1.2339   0.0000   0.4233
   2.500   1.0667   0.00880   0.00417  -0.1793  0.6901  0.8807  -1.2953   0.0000   0.4129
   3.000   1.1113   0.00878   0.00419  -0.1769  0.6759  0.9054  -1.3550   0.0000   0.4033
   3.500   1.1519   0.00876   0.00421  -0.1735  0.6607  0.9353  -1.4119   0.0000   0.3941
   4.000   1.1978   0.00878   0.00421  -0.1716  0.6427  0.9957  -1.4772   0.0000   0.3859
   4.500   1.2494   0.00907   0.00445  -0.1712  0.6211  0.9957  -1.5551   0.0000   0.3790
   5.000   1.2959   0.00947   0.00474  -0.1697  0.5948  0.9957  -1.6297   0.0000   0.3722
   5.500   1.3368   0.01001   0.00516  -0.1672  0.5650  0.9957  -1.7023   0.0000   0.3656
   6.000   1.3719   0.01063   0.00568  -0.1635  0.5358  0.9957  -1.7833   0.0000   0.3590
   6.500   1.4036   0.01144   0.00637  -0.1594  0.5064  0.9957  -1.8654   0.0000   0.3526
   7.000   1.4324   0.01239   0.00722  -0.1550  0.4744  0.9957  -1.9461   0.0000   0.3464
   7.500   1.4586   0.01352   0.00825  -0.1505  0.4449  0.9957  -2.0377   0.0000   0.3405
   8.000   1.4840   0.01483   0.00948  -0.1461  0.4176  0.9957  -2.1317   0.0000   0.3350
   8.500   1.5075   0.01636   0.01093  -0.1418  0.3899  0.9957  -2.2269   0.0000   0.3297
   9.000   1.5311   0.01802   0.01255  -0.1378  0.3636  0.9957  -2.3455   0.0000   0.3248
   9.500   1.5546   0.01980   0.01429  -0.1341  0.3390  0.9957  -2.5769   0.0000   0.3202
  10.000   1.5737   0.02190   0.01632  -0.1300  0.3161  0.9957  -2.8025   0.0000   0.3156


