XFLR5 v6.06

 Calculated polar for: fab_h_b

 1 1 Reynolds number fixed          Mach number fixed         

 xtrf =   1.000 (top)        1.000 (bottom)
 Mach =   0.000     Re =     0.150 e 6     Ncrit =   9.000

  alpha     CL        CD       CDp       Cm    Top Xtr Bot Xtr   Cpmin    Chinge    XCp    
 ------- -------- --------- --------- -------- ------- ------- -------- --------- ---------
  -8.000  -0.0255   0.08360   0.07942  -0.1231  0.9195  0.1034  -1.5753   0.0000  -4.8251
  -7.500  -0.0119   0.07985   0.07569  -0.1208  0.9109  0.1084  -1.4803   0.0000  -10.4083
  -7.000  -0.0133   0.07455   0.07043  -0.1240  0.9015  0.1144  -1.5178   0.0000  -9.5306
  -6.500  -0.1119   0.07690   0.07300  -0.1064  0.8779  0.1131  -1.6862   0.0000  -0.7449
  -5.500  -0.1267   0.05377   0.04920  -0.1230  0.8523  0.0920  -2.1726   0.0000  -0.7559
  -5.000  -0.0370   0.03572   0.02870  -0.1416  0.8484  0.0812  -2.4391   0.0000  -3.6981
  -4.500   0.0478   0.03267   0.02491  -0.1478  0.8452  0.0902  -2.1855   0.0000   3.4266
  -4.000   0.0832   0.03234   0.02442  -0.1456  0.8347  0.0980  -2.0051   0.0000   2.0461
  -3.500   0.1629   0.03088   0.02279  -0.1499  0.8308  0.1132  -1.7427   0.0000   1.1910
  -3.000   0.2029   0.03104   0.02291  -0.1482  0.8194  0.1275  -1.5635   0.0000   0.9953
  -2.500   0.2881   0.02965   0.02158  -0.1530  0.8158  0.1553  -1.3042   0.0000   0.7896
  -2.000   0.3290   0.02997   0.02195  -0.1514  0.8034  0.1846  -1.1459   0.0000   0.7163
  -1.500   0.4144   0.02872   0.02098  -0.1563  0.8008  0.2509  -0.9162   0.0000   0.6307
  -0.500   0.5078   0.02862   0.02235  -0.1552  0.7760  0.5786  -0.7929   0.0000   0.5564
   0.000   0.5620   0.02743   0.02165  -0.1509  0.7721  0.8316  -0.8391   0.0000   0.5182
   0.500   0.5724   0.02775   0.02203  -0.1414  0.7582  0.9211  -0.8559   0.0000   0.4957
   1.500   0.6764   0.02848   0.02243  -0.1413  0.7327  0.9957  -0.9477   0.0000   0.4557
   2.000   0.7630   0.02693   0.02069  -0.1450  0.7297  0.9957  -1.0249   0.0000   0.4360
   2.500   0.8526   0.02548   0.01909  -0.1495  0.7278  0.9957  -1.1090   0.0000   0.4205
   4.000   1.0170   0.02445   0.01795  -0.1480  0.6904  0.9957  -1.3044   0.0000   0.3885
   4.500   1.1091   0.02247   0.01593  -0.1527  0.6858  0.9957  -1.4101   0.0000   0.3799
   5.000   1.1704   0.02157   0.01503  -0.1528  0.6719  0.9957  -1.4969   0.0000   0.3721
   5.500   1.2330   0.02073   0.01421  -0.1532  0.6573  0.9957  -1.5862   0.0000   0.3650
   6.000   1.2988   0.01994   0.01341  -0.1543  0.6413  0.9957  -1.6884   0.0000   0.3588
   6.500   1.3353   0.02010   0.01361  -0.1507  0.6181  0.9957  -1.7719   0.0000   0.3520
   7.000   1.3873   0.01985   0.01332  -0.1495  0.5936  0.9957  -1.8764   0.0000   0.3462
   7.500   1.4370   0.01995   0.01334  -0.1481  0.5669  0.9957  -1.9904   0.0000   0.3407
   8.000   1.4750   0.02057   0.01389  -0.1451  0.5380  0.9957  -2.0990   0.0000   0.3351
   8.500   1.5053   0.02150   0.01474  -0.1409  0.5073  0.9957  -2.2036   0.0000   0.3296
   9.000   1.5293   0.02276   0.01595  -0.1361  0.4769  0.9957  -2.3195   0.0000   0.3241
   9.500   1.5545   0.02412   0.01724  -0.1318  0.4486  0.9957  -2.5314   0.0000   0.3190
  10.000   1.5713   0.02587   0.01900  -0.1266  0.4210  0.9957  -2.7472   0.0000   0.3139


