XFLR5 v6.06

 Calculated polar for: fab_d_f

 1 1 Reynolds number fixed          Mach number fixed         

 xtrf =   1.000 (top)        1.000 (bottom)
 Mach =   0.000     Re =     0.450 e 6     Ncrit =   9.000

  alpha     CL        CD       CDp       Cm    Top Xtr Bot Xtr   Cpmin    Chinge    XCp    
 ------- -------- --------- --------- -------- ------- ------- -------- --------- ---------
  -8.000  -0.1934   0.01454   0.00875  -0.1608  0.9058  0.0225  -5.4622   0.0000  -0.6111
  -7.500  -0.1358   0.01381   0.00784  -0.1619  0.8984  0.0260  -4.7743   0.0000  -0.9805
  -7.000  -0.0815   0.01306   0.00699  -0.1623  0.8897  0.0293  -4.1406   0.0000  -1.7987
  -6.500  -0.0255   0.01240   0.00621  -0.1628  0.8823  0.0339  -3.5309   0.0000  -6.3023
  -6.000   0.0305   0.01182   0.00555  -0.1632  0.8743  0.0409  -2.9490   0.0000   5.7332
  -5.500   0.0862   0.01137   0.00505  -0.1636  0.8669  0.0506  -2.5063   0.0000   2.1892
  -5.000   0.1428   0.01098   0.00462  -0.1640  0.8597  0.0641  -2.1657   0.0000   1.4208
  -4.500   0.1985   0.01067   0.00435  -0.1643  0.8523  0.0826  -1.8367   0.0000   1.0922
  -4.000   0.2553   0.01030   0.00398  -0.1647  0.8442  0.1038  -1.5465   0.0000   0.9049
  -3.500   0.3105   0.00995   0.00372  -0.1648  0.8365  0.1342  -1.2751   0.0000   0.7877
  -3.000   0.3680   0.00960   0.00347  -0.1654  0.8293  0.1804  -1.0232   0.0000   0.7044
  -2.500   0.4229   0.00932   0.00332  -0.1654  0.8204  0.2382  -0.7969   0.0000   0.6445
  -2.000   0.4812   0.00901   0.00318  -0.1662  0.8131  0.3164  -0.6890   0.0000   0.5975
  -1.500   0.5355   0.00870   0.00317  -0.1661  0.8038  0.4193  -0.7241   0.0000   0.5614
  -1.000   0.5919   0.00834   0.00317  -0.1664  0.7950  0.5618  -0.7619   0.0000   0.5315
  -0.500   0.6457   0.00810   0.00327  -0.1659  0.7854  0.6940  -0.8031   0.0000   0.5065
   0.000   0.6976   0.00806   0.00336  -0.1647  0.7746  0.7685  -0.8435   0.0000   0.4850
   0.500   0.7496   0.00806   0.00341  -0.1636  0.7644  0.8200  -0.8911   0.0000   0.4664
   1.000   0.8011   0.00806   0.00341  -0.1623  0.7532  0.8576  -0.9390   0.0000   0.4502
   1.500   0.8474   0.00801   0.00342  -0.1599  0.7396  0.8952  -0.9924   0.0000   0.4357
   2.000   0.8877   0.00789   0.00337  -0.1561  0.7259  0.9411  -1.0429   0.0000   0.4223
   2.500   0.9449   0.00785   0.00329  -0.1564  0.7093  0.9970  -1.1075   0.0000   0.4114
   3.000   0.9998   0.00799   0.00341  -0.1565  0.6913  0.9970  -1.1809   0.0000   0.4017
   3.500   1.0527   0.00817   0.00354  -0.1560  0.6697  0.9970  -1.2544   0.0000   0.3928
   4.000   1.1034   0.00842   0.00373  -0.1551  0.6436  0.9970  -1.3407   0.0000   0.3845
   4.500   1.1523   0.00876   0.00399  -0.1538  0.6153  0.9970  -1.4332   0.0000   0.3768
   5.000   1.1972   0.00923   0.00433  -0.1517  0.5790  0.9970  -1.5369   0.0000   0.3695
   5.500   1.2404   0.00978   0.00477  -0.1494  0.5407  0.9970  -1.6481   0.0000   0.3625
   6.000   1.2800   0.01048   0.00533  -0.1465  0.5006  0.9970  -1.7895   0.0000   0.3558
   6.500   1.3164   0.01128   0.00598  -0.1430  0.4589  0.9970  -2.0350   0.0000   0.3494
   7.000   1.3483   0.01217   0.00674  -0.1388  0.4167  0.9970  -2.3358   0.0000   0.3430
   7.500   1.3764   0.01328   0.00766  -0.1341  0.3691  0.9970  -2.7669   0.0000   0.3368
   8.000   1.4000   0.01466   0.00880  -0.1290  0.3165  0.9970  -3.1968   0.0000   0.3307
   8.500   1.4220   0.01623   0.01015  -0.1239  0.2646  0.9970  -3.6369   0.0000   0.3249
   9.000   1.4424   0.01802   0.01171  -0.1190  0.2176  0.9970  -4.0859   0.0000   0.3195
   9.500   1.4623   0.01997   0.01347  -0.1143  0.1740  0.9970  -4.5477   0.0000   0.3144
  10.000   1.4787   0.02226   0.01556  -0.1096  0.1325  0.9970  -5.0013   0.0000   0.3096


