XFLR5 v6.06

 Calculated polar for: fab_f_d

 1 1 Reynolds number fixed          Mach number fixed         

 xtrf =   1.000 (top)        1.000 (bottom)
 Mach =   0.000     Re =     0.250 e 6     Ncrit =   9.000

  alpha     CL        CD       CDp       Cm    Top Xtr Bot Xtr   Cpmin    Chinge    XCp    
 ------- -------- --------- --------- -------- ------- ------- -------- --------- ---------
  -8.000  -0.1458   0.02801   0.02272  -0.1674  0.9030  0.0431  -3.7550   0.0000  -0.9418
  -7.500  -0.1054   0.02436   0.01840  -0.1678  0.8949  0.0459  -3.5618   0.0000  -1.3977
  -7.000  -0.0515   0.02197   0.01550  -0.1691  0.8887  0.0506  -3.2706   0.0000  -3.1414
  -6.500  -0.0022   0.02033   0.01343  -0.1688  0.8814  0.0559  -2.9822   0.0000  -79.4965
  -6.000   0.0528   0.01900   0.01198  -0.1693  0.8751  0.0623  -2.6647   0.0000   3.5437
  -5.500   0.1083   0.01798   0.01079  -0.1697  0.8696  0.0709  -2.3651   0.0000   1.8571
  -5.000   0.1587   0.01730   0.01008  -0.1691  0.8620  0.0809  -2.0897   0.0000   1.3402
  -4.500   0.2209   0.01647   0.00920  -0.1706  0.8577  0.0949  -1.7960   0.0000   1.0380
  -4.000   0.2677   0.01605   0.00884  -0.1693  0.8482  0.1101  -1.5637   0.0000   0.8939
  -3.500   0.3311   0.01540   0.00823  -0.1709  0.8433  0.1341  -1.3076   0.0000   0.7742
  -3.000   0.3782   0.01521   0.00817  -0.1697  0.8344  0.1670  -1.1113   0.0000   0.7048
  -2.500   0.4414   0.01462   0.00774  -0.1714  0.8292  0.2217  -0.9024   0.0000   0.6424
  -2.000   0.4921   0.01437   0.00775  -0.1708  0.8195  0.2932  -0.7406   0.0000   0.5999
  -1.500   0.5563   0.01373   0.00749  -0.1727  0.8142  0.4280  -0.7819   0.0000   0.5620
  -1.000   0.6039   0.01341   0.00786  -0.1712  0.8043  0.6325  -0.8154   0.0000   0.5342
  -0.500   0.6569   0.01324   0.00792  -0.1696  0.7970  0.7660  -0.8577   0.0000   0.5081
   0.000   0.7025   0.01327   0.00800  -0.1668  0.7873  0.8283  -0.8954   0.0000   0.4865
   0.500   0.7412   0.01327   0.00805  -0.1625  0.7772  0.8789  -0.9332   0.0000   0.4675
   1.000   0.7882   0.01279   0.00751  -0.1595  0.7695  0.9237  -0.9802   0.0000   0.4498
   1.500   0.8397   0.01257   0.00730  -0.1584  0.7578  0.9964  -1.0305   0.0000   0.4354
   2.000   0.8999   0.01256   0.00722  -0.1596  0.7462  0.9964  -1.0937   0.0000   0.4235
   2.500   0.9608   0.01243   0.00702  -0.1607  0.7340  0.9964  -1.1614   0.0000   0.4128
   3.000   1.0207   0.01235   0.00689  -0.1616  0.7220  0.9964  -1.2295   0.0000   0.4032
   3.500   1.0763   0.01224   0.00674  -0.1615  0.7064  0.9964  -1.3019   0.0000   0.3942
   4.000   1.1297   0.01221   0.00669  -0.1610  0.6893  0.9964  -1.3786   0.0000   0.3860
   4.500   1.1824   0.01224   0.00671  -0.1604  0.6709  0.9964  -1.4557   0.0000   0.3784
   5.000   1.2317   0.01235   0.00680  -0.1590  0.6483  0.9964  -1.5458   0.0000   0.3712
   5.500   1.2787   0.01257   0.00696  -0.1573  0.6215  0.9964  -1.6396   0.0000   0.3644
   6.000   1.3219   0.01297   0.00732  -0.1549  0.5921  0.9964  -1.7404   0.0000   0.3579
   6.500   1.3602   0.01354   0.00781  -0.1517  0.5584  0.9964  -1.8458   0.0000   0.3515
   7.000   1.3930   0.01430   0.00844  -0.1475  0.5228  0.9964  -1.9557   0.0000   0.3451
   7.500   1.4217   0.01523   0.00927  -0.1428  0.4889  0.9964  -2.1102   0.0000   0.3389
   8.000   1.4462   0.01633   0.01032  -0.1376  0.4540  0.9964  -2.3439   0.0000   0.3328
   8.500   1.4679   0.01767   0.01157  -0.1323  0.4205  0.9964  -2.5824   0.0000   0.3270
   9.000   1.4874   0.01923   0.01306  -0.1271  0.3886  0.9964  -2.9265   0.0000   0.3215
   9.500   1.5051   0.02103   0.01482  -0.1220  0.3567  0.9964  -3.2805   0.0000   0.3163
  10.000   1.5214   0.02307   0.01683  -0.1172  0.3259  0.9964  -3.6412   0.0000   0.3113


