XFLR5 v6.06

 Calculated polar for: fab_b_h

 1 1 Reynolds number fixed          Mach number fixed         

 xtrf =   1.000 (top)        1.000 (bottom)
 Mach =   0.000     Re =     0.250 e 6     Ncrit =   9.000

  alpha     CL        CD       CDp       Cm    Top Xtr Bot Xtr   Cpmin    Chinge    XCp    
 ------- -------- --------- --------- -------- ------- ------- -------- --------- ---------
  -8.000  -0.4066   0.02750   0.02242  -0.1167  0.9575  0.0094  -6.4740   0.0000  -0.0498
  -7.000  -0.2819   0.02050   0.01426  -0.1247  0.9450  0.0132  -5.5686   0.0000  -0.2079
  -6.000  -0.1511   0.01806   0.01129  -0.1305  0.9327  0.0321  -4.3396   0.0000  -0.6370
  -5.500  -0.0748   0.01695   0.01004  -0.1352  0.9297  0.0390  -3.6198   0.0000  -1.5994
  -4.500   0.0588   0.01514   0.00814  -0.1406  0.9175  0.0727  -2.3694   0.0000   2.6829
  -3.500   0.1921   0.01377   0.00702  -0.1457  0.9044  0.1648  -1.4820   0.0000   1.0183
  -2.500   0.3221   0.01234   0.00608  -0.1500  0.8898  0.3335  -0.9252   0.0000   0.7196
  -2.000   0.3824   0.01178   0.00587  -0.1510  0.8805  0.4534  -0.6842   0.0000   0.6475
  -1.500   0.4471   0.01113   0.00561  -0.1525  0.8731  0.5984  -0.6194   0.0000   0.5926
  -0.500   0.5481   0.01075   0.00568  -0.1489  0.8496  0.8047  -0.6907   0.0000   0.5215
   0.000   0.5930   0.01058   0.00559  -0.1455  0.8376  0.8736  -0.7268   0.0000   0.4946
   0.500   0.6373   0.01026   0.00528  -0.1419  0.8251  0.9519  -0.7684   0.0000   0.4713
   1.000   0.7073   0.01010   0.00500  -0.1449  0.8124  0.9976  -0.8272   0.0000   0.4528
   1.500   0.7667   0.01013   0.00491  -0.1456  0.7977  0.9976  -0.8862   0.0000   0.4374
   2.000   0.8221   0.01018   0.00491  -0.1455  0.7804  0.9976  -0.9481   0.0000   0.4239
   2.500   0.8772   0.01023   0.00492  -0.1452  0.7622  0.9976  -1.0177   0.0000   0.4119
   3.000   0.9327   0.01027   0.00490  -0.1449  0.7424  0.9976  -1.0971   0.0000   0.4012
   3.500   0.9846   0.01038   0.00501  -0.1439  0.7198  0.9976  -1.1859   0.0000   0.3914
   4.000   1.0365   0.01051   0.00510  -0.1429  0.6939  0.9976  -1.2894   0.0000   0.3825
   4.500   1.0854   0.01073   0.00531  -0.1413  0.6632  0.9976  -1.4067   0.0000   0.3743
   5.000   1.1321   0.01105   0.00557  -0.1393  0.6268  0.9976  -1.5577   0.0000   0.3665
   5.500   1.1763   0.01152   0.00597  -0.1369  0.5856  0.9976  -1.7962   0.0000   0.3592
   6.000   1.2170   0.01216   0.00649  -0.1339  0.5386  0.9976  -2.0785   0.0000   0.3522
   6.500   1.2535   0.01299   0.00717  -0.1302  0.4864  0.9976  -2.4079   0.0000   0.3455
   7.000   1.2853   0.01401   0.00800  -0.1259  0.4306  0.9976  -2.9085   0.0000   0.3388
   7.500   1.3109   0.01521   0.00899  -0.1205  0.3718  0.9976  -3.3999   0.0000   0.3322
   8.000   1.3317   0.01670   0.01023  -0.1147  0.3068  0.9976  -3.8851   0.0000   0.3257
   8.500   1.3494   0.01851   0.01173  -0.1089  0.2428  0.9976  -4.3673   0.0000   0.3195
   9.000   1.3666   0.02052   0.01349  -0.1035  0.1845  0.9976  -4.8606   0.0000   0.3138
   9.500   1.3822   0.02282   0.01553  -0.0983  0.1323  0.9976  -5.3551   0.0000   0.3084
  10.000   1.3956   0.02542   0.01790  -0.0932  0.0879  0.9976  -5.8415   0.0000   0.3034


