XFLR5 v6.06

 Calculated polar for: fab_f_d

 1 1 Reynolds number fixed          Mach number fixed         

 xtrf =   1.000 (top)        1.000 (bottom)
 Mach =   0.000     Re =     0.500 e 6     Ncrit =   9.000

  alpha     CL        CD       CDp       Cm    Top Xtr Bot Xtr   Cpmin    Chinge    XCp    
 ------- -------- --------- --------- -------- ------- ------- -------- --------- ---------
  -8.000  -0.1351   0.01542   0.00952  -0.1708  0.8545  0.0322  -4.2343   0.0000  -1.0617
  -7.500  -0.0812   0.01454   0.00852  -0.1712  0.8487  0.0355  -3.8276   0.0000  -1.9312
  -7.000  -0.0250   0.01375   0.00759  -0.1719  0.8435  0.0395  -3.4267   0.0000  -6.8450
  -6.500   0.0289   0.01308   0.00681  -0.1720  0.8373  0.0442  -3.0518   0.0000   6.3762
  -6.000   0.0848   0.01243   0.00613  -0.1725  0.8317  0.0499  -2.6977   0.0000   2.3383
  -5.500   0.1415   0.01191   0.00554  -0.1730  0.8270  0.0574  -2.3600   0.0000   1.5025
  -5.000   0.1961   0.01141   0.00505  -0.1731  0.8208  0.0666  -2.0581   0.0000   1.1519
  -4.500   0.2539   0.01098   0.00459  -0.1738  0.8152  0.0780  -1.7626   0.0000   0.9477
  -4.000   0.3090   0.01065   0.00428  -0.1739  0.8088  0.0919  -1.4989   0.0000   0.8223
  -3.500   0.3658   0.01029   0.00397  -0.1744  0.8031  0.1125  -1.2554   0.0000   0.7334
  -3.000   0.4233   0.01003   0.00376  -0.1749  0.7971  0.1464  -1.0372   0.0000   0.6680
  -2.500   0.4785   0.00973   0.00360  -0.1750  0.7898  0.1903  -0.8444   0.0000   0.6191
  -2.000   0.5376   0.00948   0.00346  -0.1759  0.7841  0.2473  -0.7740   0.0000   0.5793
  -1.500   0.5917   0.00916   0.00339  -0.1758  0.7760  0.3254  -0.8100   0.0000   0.5483
  -1.000   0.6507   0.00880   0.00332  -0.1767  0.7694  0.4491  -0.8500   0.0000   0.5219
  -0.500   0.7042   0.00835   0.00342  -0.1765  0.7606  0.6352  -0.8922   0.0000   0.5001
   0.000   0.7588   0.00826   0.00352  -0.1760  0.7527  0.7412  -0.9354   0.0000   0.4806
   0.500   0.8112   0.00824   0.00358  -0.1750  0.7432  0.7911  -0.9828   0.0000   0.4637
   1.000   0.8625   0.00825   0.00363  -0.1738  0.7329  0.8281  -1.0322   0.0000   0.4488
   1.500   0.9142   0.00825   0.00363  -0.1727  0.7222  0.8552  -1.0861   0.0000   0.4355
   2.000   0.9635   0.00823   0.00363  -0.1711  0.7110  0.8824  -1.1450   0.0000   0.4235
   2.500   1.0083   0.00818   0.00362  -0.1685  0.6961  0.9109  -1.2025   0.0000   0.4124
   3.000   1.0468   0.00807   0.00359  -0.1645  0.6803  0.9571  -1.2561   0.0000   0.4019
   3.500   1.1035   0.00818   0.00368  -0.1650  0.6623  0.9964  -1.3312   0.0000   0.3936
   4.000   1.1563   0.00842   0.00383  -0.1647  0.6404  0.9964  -1.4076   0.0000   0.3858
   4.500   1.2055   0.00874   0.00408  -0.1636  0.6135  0.9964  -1.4829   0.0000   0.3784
   5.000   1.2517   0.00916   0.00440  -0.1620  0.5839  0.9964  -1.5718   0.0000   0.3714
   5.500   1.2940   0.00972   0.00483  -0.1596  0.5517  0.9964  -1.6615   0.0000   0.3646
   6.000   1.3316   0.01039   0.00537  -0.1563  0.5144  0.9964  -1.7586   0.0000   0.3580
   6.500   1.3654   0.01113   0.00600  -0.1524  0.4812  0.9964  -1.8597   0.0000   0.3515
   7.000   1.3962   0.01203   0.00678  -0.1481  0.4472  0.9964  -1.9683   0.0000   0.3452
   7.500   1.4263   0.01301   0.00767  -0.1439  0.4127  0.9964  -2.1378   0.0000   0.3393
   8.000   1.4539   0.01416   0.00873  -0.1395  0.3805  0.9964  -2.3884   0.0000   0.3336
   8.500   1.4793   0.01551   0.00998  -0.1351  0.3478  0.9964  -2.7410   0.0000   0.3281
   9.000   1.5015   0.01714   0.01150  -0.1306  0.3155  0.9964  -3.1157   0.0000   0.3229
   9.500   1.5242   0.01889   0.01316  -0.1264  0.2811  0.9964  -3.5089   0.0000   0.3181
  10.000   1.5421   0.02103   0.01517  -0.1220  0.2470  0.9964  -3.8938   0.0000   0.3133


