XFLR5 v6.06

 Calculated polar for: fab_f_d

 1 1 Reynolds number fixed          Mach number fixed         

 xtrf =   1.000 (top)        1.000 (bottom)
 Mach =   0.000     Re =     0.050 e 6     Ncrit =   9.000

  alpha     CL        CD       CDp       Cm    Top Xtr Bot Xtr   Cpmin    Chinge    XCp    
 ------- -------- --------- --------- -------- ------- ------- -------- --------- ---------
  -8.000  -0.3531   0.13194   0.12628  -0.0173  1.0036  0.2151  -1.3579   0.0000   0.1902
  -7.500  -0.3598   0.12737   0.12181  -0.0147  1.0036  0.2263  -1.3571   0.0000   0.1993
  -7.000  -0.3710   0.12310   0.11765  -0.0120  1.0036  0.2381  -1.3651   0.0000   0.2088
  -6.500  -0.3874   0.11904   0.11370  -0.0090  1.0036  0.2500  -1.3824   0.0000   0.2188
  -6.000  -0.4426   0.11802   0.11289  -0.0049  1.0036  0.2594  -1.4859   0.0000   0.2326
  -5.000  -0.4394   0.10666   0.10167   0.0025  1.0036  0.2954  -1.4100   0.0000   0.2502
  -4.500  -0.4677   0.10248   0.09763   0.0009  1.0036  0.3178  -1.4727   0.0000   0.2474
  -4.000  -0.4581   0.09672   0.09191   0.0066  1.0036  0.3444  -1.4152   0.0000   0.2599
  -3.500  -0.4706   0.08770   0.08272   0.0071  1.0036  0.3827  -1.4723   0.0000   0.2603
  -3.000  -0.4641   0.08293   0.07799   0.0113  1.0036  0.4296  -1.4241   0.0000   0.2701
  -2.500  -0.3757   0.06835   0.06287  -0.0260  1.0036  0.3516  -1.5064   0.0000   0.1760
  -2.000  -0.3903   0.06823   0.06305  -0.0073  1.0036  0.4561  -1.3889   0.0000   0.2270
  -1.500  -0.4226   0.06807   0.06318   0.0202  1.0036  0.5780  -1.3021   0.0000   0.2942
  -1.000  -0.0392   0.04360   0.03381  -0.0877  1.0036  0.2677  -1.3941   0.0000  -2.0204
  -0.500   0.0137   0.04373   0.03387  -0.0895  1.0036  0.3219  -1.2356   0.0000   6.8438
   0.000   0.0687   0.04434   0.03477  -0.0915  1.0036  0.4244  -1.0767   0.0000   1.5938
   0.500   0.1027   0.04395   0.03645  -0.0855  1.0036  0.8328  -0.9569   0.0000   1.0875
   1.000   0.1224   0.04473   0.03653  -0.0834  1.0036  0.9964  -0.8630   0.0000   0.9334
   1.500   0.1639   0.04746   0.03871  -0.0851  1.0036  0.9964  -0.7292   0.0000   0.7687
   2.000   0.2020   0.05039   0.04124  -0.0864  1.0036  0.9964  -0.6101   0.0000   0.6755
   2.500   0.2610   0.05471   0.04521  -0.0920  0.9925  0.9964  -0.5575   0.0000   0.5987
   3.000   0.3312   0.05958   0.04980  -0.0994  0.9622  0.9964  -0.6051   0.0000   0.5456
   3.500   0.4079   0.06495   0.05492  -0.1071  0.9286  0.9964  -0.6597   0.0000   0.5075
   4.000   0.5315   0.06552   0.05519  -0.1142  0.8059  0.9964  -0.7682   0.0000   0.4591
   4.500   0.5979   0.06786   0.05742  -0.1166  0.7713  0.9964  -0.8302   0.0000   0.4387
   5.000   0.6452   0.07037   0.05993  -0.1171  0.7423  0.9964  -0.8812   0.0000   0.4244
   5.500   0.6836   0.07311   0.06270  -0.1166  0.7148  0.9964  -0.9249   0.0000   0.4129
   6.000   0.7233   0.07583   0.06547  -0.1162  0.6875  0.9964  -0.9711   0.0000   0.4023
   6.500   0.7633   0.07855   0.06827  -0.1158  0.6605  0.9964  -1.0233   0.0000   0.3926
   7.000   0.8073   0.08118   0.07102  -0.1155  0.6352  0.9964  -1.0877   0.0000   0.3834
   7.500   0.8504   0.08381   0.07378  -0.1151  0.6108  0.9964  -1.1543   0.0000   0.3749
   8.000   0.8668   0.08804   0.07817  -0.1133  0.5852  0.9964  -1.1881   0.0000   0.3697
   8.500   0.8967   0.09151   0.08180  -0.1121  0.5603  0.9964  -1.2469   0.0000   0.3632
   9.000   0.9453   0.09349   0.08399  -0.1112  0.5367  0.9964  -1.3415   0.0000   0.3551
   9.500   0.9397   0.10023   0.09089  -0.1097  0.5127  0.9964  -1.3476   0.0000   0.3535
  10.000   0.9769   0.10324   0.09413  -0.1084  0.4897  0.9964  -1.4363   0.0000   0.3470


