XFLR5 v6.06

 Calculated polar for: fab_b_h

 1 1 Reynolds number fixed          Mach number fixed         

 xtrf =   1.000 (top)        1.000 (bottom)
 Mach =   0.000     Re =     0.600 e 6     Ncrit =   9.000

  alpha     CL        CD       CDp       Cm    Top Xtr Bot Xtr   Cpmin    Chinge    XCp    
 ------- -------- --------- --------- -------- ------- ------- -------- --------- ---------
  -8.000  -0.2644   0.01401   0.00872  -0.1474  0.9445  0.0038  -6.6446   0.0000  -0.3265
  -7.500  -0.2043   0.01282   0.00729  -0.1490  0.9365  0.0039  -5.8983   0.0000  -0.5016
  -6.500  -0.0828   0.01100   0.00512  -0.1519  0.9195  0.0051  -4.4887   0.0000  -1.6308
  -6.000  -0.0237   0.01031   0.00439  -0.1530  0.9101  0.0134  -3.8387   0.0000  -6.3483
  -5.500   0.0364   0.00986   0.00383  -0.1540  0.9012  0.0189  -3.2028   0.0000   4.5691
  -5.000   0.0914   0.00941   0.00338  -0.1541  0.8906  0.0289  -2.6190   0.0000   1.9661
  -4.500   0.1480   0.00903   0.00301  -0.1545  0.8805  0.0470  -2.0580   0.0000   1.3094
  -4.000   0.2055   0.00866   0.00269  -0.1550  0.8707  0.0746  -1.6265   0.0000   1.0143
  -3.500   0.2610   0.00836   0.00244  -0.1551  0.8605  0.1050  -1.3390   0.0000   0.8510
  -3.000   0.3165   0.00804   0.00226  -0.1553  0.8499  0.1563  -1.0733   0.0000   0.7451
  -2.500   0.3729   0.00776   0.00212  -0.1556  0.8398  0.2162  -0.8201   0.0000   0.6703
  -2.000   0.4288   0.00732   0.00205  -0.1559  0.8296  0.3393  -0.6097   0.0000   0.6156
  -1.500   0.4834   0.00706   0.00200  -0.1558  0.8177  0.4302  -0.6438   0.0000   0.5734
  -1.000   0.5385   0.00680   0.00202  -0.1558  0.8063  0.5415  -0.6797   0.0000   0.5396
  -0.500   0.5929   0.00662   0.00206  -0.1555  0.7937  0.6464  -0.7197   0.0000   0.5118
   0.000   0.6465   0.00653   0.00214  -0.1548  0.7810  0.7322  -0.7615   0.0000   0.4885
   0.500   0.6986   0.00651   0.00222  -0.1538  0.7668  0.7951  -0.8075   0.0000   0.4685
   1.000   0.7493   0.00651   0.00229  -0.1524  0.7512  0.8428  -0.8579   0.0000   0.4513
   1.500   0.7967   0.00651   0.00236  -0.1503  0.7339  0.8912  -0.9104   0.0000   0.4359
   2.000   0.8392   0.00647   0.00237  -0.1470  0.7145  0.9493  -0.9655   0.0000   0.4219
   2.500   0.8965   0.00658   0.00242  -0.1474  0.6937  0.9976  -1.0375   0.0000   0.4106
   3.000   0.9489   0.00681   0.00256  -0.1467  0.6673  0.9976  -1.1166   0.0000   0.4004
   3.500   0.9999   0.00710   0.00275  -0.1458  0.6379  0.9976  -1.2064   0.0000   0.3910
   4.000   1.0488   0.00747   0.00301  -0.1445  0.6006  0.9976  -1.3091   0.0000   0.3824
   4.500   1.0956   0.00794   0.00334  -0.1428  0.5604  0.9976  -1.4297   0.0000   0.3744
   5.000   1.1350   0.00875   0.00381  -0.1397  0.4910  0.9976  -1.5731   0.0000   0.3665
   5.500   1.1736   0.00966   0.00440  -0.1367  0.4196  0.9976  -1.8080   0.0000   0.3593
   6.000   1.2122   0.01061   0.00506  -0.1337  0.3571  0.9976  -2.0894   0.0000   0.3525
   6.500   1.2406   0.01207   0.00599  -0.1291  0.2615  0.9976  -2.4312   0.0000   0.3456
   7.000   1.2724   0.01336   0.00692  -0.1252  0.1965  0.9976  -2.9153   0.0000   0.3393
   7.500   1.3020   0.01475   0.00799  -0.1210  0.1395  0.9976  -3.4101   0.0000   0.3332
   8.000   1.3304   0.01616   0.00916  -0.1168  0.0951  0.9976  -3.9197   0.0000   0.3273
   8.500   1.3542   0.01785   0.01059  -0.1120  0.0531  0.9976  -4.4174   0.0000   0.3215
   9.000   1.3806   0.01939   0.01204  -0.1078  0.0311  0.9976  -4.9460   0.0000   0.3162
   9.500   1.4063   0.02101   0.01362  -0.1036  0.0175  0.9976  -5.4826   0.0000   0.3111
  10.000   1.4313   0.02272   0.01536  -0.0997  0.0111  0.9976  -6.0275   0.0000   0.3062


