XFLR5 v6.06

 Calculated polar for: fab_h_b

 1 1 Reynolds number fixed          Mach number fixed         

 xtrf =   1.000 (top)        1.000 (bottom)
 Mach =   0.000     Re =     0.550 e 6     Ncrit =   9.000

  alpha     CL        CD       CDp       Cm    Top Xtr Bot Xtr   Cpmin    Chinge    XCp    
 ------- -------- --------- --------- -------- ------- ------- -------- --------- ---------
  -8.000  -0.0844   0.01550   0.00957  -0.1794  0.8203  0.0359  -4.0365   0.0000  -1.9621
  -7.500  -0.0286   0.01464   0.00856  -0.1801  0.8163  0.0385  -3.6251   0.0000  -6.2782
  -7.000   0.0253   0.01388   0.00771  -0.1803  0.8115  0.0415  -3.2633   0.0000   7.6338
  -6.500   0.0805   0.01323   0.00699  -0.1807  0.8068  0.0452  -2.9273   0.0000   2.5659
  -6.000   0.1375   0.01264   0.00634  -0.1814  0.8030  0.0496  -2.6098   0.0000   1.6070
  -5.500   0.1937   0.01219   0.00584  -0.1818  0.7988  0.0555  -2.3127   0.0000   1.2134
  -5.000   0.2486   0.01167   0.00533  -0.1820  0.7935  0.0627  -2.0435   0.0000   0.9994
  -4.500   0.3063   0.01125   0.00487  -0.1826  0.7889  0.0720  -1.7784   0.0000   0.8587
  -4.000   0.3634   0.01097   0.00459  -0.1831  0.7844  0.0831  -1.5379   0.0000   0.7631
  -3.500   0.4187   0.01063   0.00431  -0.1832  0.7788  0.0976  -1.3133   0.0000   0.6945
  -3.000   0.4773   0.01027   0.00401  -0.1839  0.7737  0.1219  -1.1004   0.0000   0.6404
  -2.500   0.5333   0.01004   0.00388  -0.1842  0.7683  0.1562  -0.9080   0.0000   0.5989
  -2.000   0.5898   0.00978   0.00372  -0.1845  0.7619  0.1976  -0.8579   0.0000   0.5651
  -1.500   0.6493   0.00955   0.00360  -0.1855  0.7567  0.2539  -0.8980   0.0000   0.5368
  -1.000   0.7032   0.00923   0.00356  -0.1854  0.7494  0.3374  -0.9352   0.0000   0.5138
  -0.500   0.7627   0.00877   0.00347  -0.1865  0.7429  0.4972  -0.9822   0.0000   0.4938
   0.000   0.8155   0.00839   0.00369  -0.1860  0.7352  0.7019  -1.0259   0.0000   0.4766
   0.500   0.8714   0.00837   0.00369  -0.1858  0.7278  0.7649  -1.0743   0.0000   0.4609
   1.000   0.9222   0.00837   0.00375  -0.1846  0.7180  0.8023  -1.1268   0.0000   0.4471
   1.500   0.9737   0.00839   0.00380  -0.1835  0.7087  0.8287  -1.1802   0.0000   0.4346
   2.000   1.0255   0.00840   0.00379  -0.1825  0.6985  0.8510  -1.2394   0.0000   0.4234
   2.500   1.0743   0.00841   0.00382  -0.1809  0.6850  0.8700  -1.3015   0.0000   0.4132
   3.000   1.1203   0.00845   0.00390  -0.1788  0.6707  0.8919  -1.3622   0.0000   0.4037
   3.500   1.1632   0.00849   0.00397  -0.1760  0.6547  0.9159  -1.4210   0.0000   0.3947
   4.000   1.1995   0.00850   0.00403  -0.1719  0.6358  0.9579  -1.4792   0.0000   0.3860
   4.500   1.2509   0.00877   0.00423  -0.1714  0.6128  0.9957  -1.5571   0.0000   0.3790
   5.000   1.2971   0.00919   0.00455  -0.1699  0.5851  0.9957  -1.6314   0.0000   0.3722
   5.500   1.3374   0.00976   0.00500  -0.1673  0.5548  0.9957  -1.7036   0.0000   0.3656
   6.000   1.3727   0.01041   0.00553  -0.1637  0.5258  0.9957  -1.7848   0.0000   0.3590
   6.500   1.4044   0.01123   0.00623  -0.1596  0.4959  0.9957  -1.8669   0.0000   0.3526
   7.500   1.4602   0.01332   0.00812  -0.1508  0.4355  0.9957  -2.0403   0.0000   0.3407
   8.000   1.4876   0.01456   0.00930  -0.1468  0.4077  0.9957  -2.1370   0.0000   0.3352
   8.500   1.5117   0.01608   0.01073  -0.1426  0.3804  0.9957  -2.2334   0.0000   0.3300
   9.000   1.5358   0.01772   0.01232  -0.1387  0.3550  0.9957  -2.3602   0.0000   0.3251
  10.000   1.5808   0.02146   0.01598  -0.1311  0.3074  0.9957  -2.8265   0.0000   0.3159


