XFLR5 v6.06

 Calculated polar for: fab_d_f

 1 1 Reynolds number fixed          Mach number fixed         

 xtrf =   1.000 (top)        1.000 (bottom)
 Mach =   0.000     Re =     0.500 e 6     Ncrit =   9.000

  alpha     CL        CD       CDp       Cm    Top Xtr Bot Xtr   Cpmin    Chinge    XCp    
 ------- -------- --------- --------- -------- ------- ------- -------- --------- ---------
  -8.000  -0.1892   0.01366   0.00789  -0.1617  0.8995  0.0210  -5.4712   0.0000  -0.6347
  -7.500  -0.1356   0.01299   0.00710  -0.1619  0.8905  0.0238  -4.8063   0.0000  -0.9828
  -7.000  -0.0792   0.01240   0.00640  -0.1626  0.8831  0.0278  -4.1525   0.0000  -1.8638
  -6.500  -0.0239   0.01176   0.00566  -0.1630  0.8750  0.0322  -3.5445   0.0000  -6.7474
  -6.000   0.0321   0.01125   0.00509  -0.1634  0.8675  0.0389  -2.9600   0.0000   5.4552
  -5.500   0.0884   0.01082   0.00460  -0.1638  0.8600  0.0486  -2.5101   0.0000   2.1435
  -5.000   0.1447   0.01047   0.00422  -0.1641  0.8533  0.0607  -2.1691   0.0000   1.4064
  -4.500   0.2007   0.01014   0.00390  -0.1644  0.8454  0.0774  -1.8393   0.0000   1.0834
  -4.000   0.2565   0.00986   0.00365  -0.1647  0.8376  0.1002  -1.5471   0.0000   0.9015
  -3.500   0.3132   0.00950   0.00336  -0.1651  0.8303  0.1306  -1.2708   0.0000   0.7838
  -3.000   0.3692   0.00920   0.00316  -0.1653  0.8228  0.1744  -1.0216   0.0000   0.7026
  -2.500   0.4261   0.00889   0.00297  -0.1657  0.8144  0.2302  -0.7911   0.0000   0.6423
  -2.000   0.4815   0.00863   0.00291  -0.1659  0.8066  0.3029  -0.6897   0.0000   0.5967
  -1.500   0.5391   0.00833   0.00281  -0.1665  0.7981  0.4000  -0.7267   0.0000   0.5600
  -1.000   0.5934   0.00798   0.00284  -0.1664  0.7884  0.5303  -0.7632   0.0000   0.5307
  -0.500   0.6482   0.00771   0.00293  -0.1662  0.7793  0.6712  -0.8050   0.0000   0.5059
   0.000   0.7020   0.00764   0.00298  -0.1655  0.7691  0.7534  -0.8466   0.0000   0.4846
   0.500   0.7534   0.00764   0.00308  -0.1643  0.7580  0.8078  -0.8938   0.0000   0.4662
   1.000   0.8041   0.00764   0.00312  -0.1629  0.7458  0.8445  -0.9413   0.0000   0.4502
   1.500   0.8531   0.00763   0.00316  -0.1611  0.7329  0.8795  -0.9964   0.0000   0.4359
   2.000   0.8971   0.00757   0.00316  -0.1583  0.7186  0.9188  -1.0496   0.0000   0.4228
   2.500   0.9455   0.00746   0.00307  -0.1564  0.7012  0.9970  -1.1083   0.0000   0.4112
   3.000   1.0015   0.00762   0.00318  -0.1567  0.6835  0.9970  -1.1828   0.0000   0.4017
   3.500   1.0545   0.00782   0.00331  -0.1563  0.6608  0.9970  -1.2564   0.0000   0.3928
   4.000   1.1051   0.00811   0.00351  -0.1553  0.6345  0.9970  -1.3429   0.0000   0.3846
   4.500   1.1536   0.00847   0.00379  -0.1540  0.6043  0.9970  -1.4352   0.0000   0.3769
   5.000   1.1983   0.00896   0.00415  -0.1519  0.5660  0.9970  -1.5387   0.0000   0.3695
   5.500   1.2413   0.00954   0.00460  -0.1496  0.5278  0.9970  -1.6500   0.0000   0.3626
   6.000   1.2809   0.01026   0.00517  -0.1467  0.4871  0.9970  -1.7920   0.0000   0.3559
   6.500   1.3172   0.01105   0.00582  -0.1433  0.4457  0.9970  -2.0388   0.0000   0.3495
   7.000   1.3487   0.01199   0.00658  -0.1390  0.3982  0.9970  -2.3515   0.0000   0.3431
   7.500   1.3753   0.01320   0.00755  -0.1341  0.3447  0.9970  -2.7760   0.0000   0.3368
   8.000   1.3999   0.01457   0.00868  -0.1292  0.2916  0.9970  -3.2118   0.0000   0.3308
   8.500   1.4234   0.01610   0.00999  -0.1243  0.2453  0.9970  -3.6602   0.0000   0.3252
   9.000   1.4443   0.01788   0.01154  -0.1195  0.1965  0.9970  -4.1123   0.0000   0.3198
   9.500   1.4627   0.01993   0.01335  -0.1147  0.1512  0.9970  -4.5643   0.0000   0.3146
  10.000   1.4813   0.02208   0.01534  -0.1102  0.1159  0.9970  -5.0303   0.0000   0.3098


