XFLR5 v6.06

 Calculated polar for: fab_b_h

 1 1 Reynolds number fixed          Mach number fixed         

 xtrf =   1.000 (top)        1.000 (bottom)
 Mach =   0.000     Re =     0.550 e 6     Ncrit =   9.000

  alpha     CL        CD       CDp       Cm    Top Xtr Bot Xtr   Cpmin    Chinge    XCp    
 ------- -------- --------- --------- -------- ------- ------- -------- --------- ---------
  -8.000  -0.2729   0.01466   0.00930  -0.1456  0.9456  0.0041  -6.6539   0.0000  -0.3023
  -7.500  -0.2091   0.01329   0.00767  -0.1481  0.9398  0.0042  -5.9014   0.0000  -0.4803
  -7.000  -0.1478   0.01220   0.00638  -0.1498  0.9319  0.0047  -5.1839   0.0000  -0.7919
  -6.500  -0.0875   0.01130   0.00537  -0.1512  0.9236  0.0070  -4.5034   0.0000  -1.5208
  -6.000  -0.0251   0.01063   0.00464  -0.1529  0.9156  0.0163  -3.8357   0.0000  -5.9783
  -5.500   0.0312   0.01018   0.00410  -0.1532  0.9052  0.0212  -3.2198   0.0000   5.2607
  -5.000   0.0891   0.00969   0.00361  -0.1538  0.8960  0.0328  -2.6198   0.0000   2.0073
  -4.500   0.1482   0.00929   0.00319  -0.1547  0.8868  0.0517  -2.0462   0.0000   1.3099
  -4.000   0.2029   0.00892   0.00289  -0.1547  0.8756  0.0793  -1.6321   0.0000   1.0226
  -3.500   0.2591   0.00861   0.00264  -0.1549  0.8658  0.1124  -1.3424   0.0000   0.8548
  -3.000   0.3165   0.00828   0.00243  -0.1555  0.8562  0.1656  -1.0725   0.0000   0.7459
  -2.500   0.3717   0.00793   0.00230  -0.1556  0.8452  0.2418  -0.8220   0.0000   0.6717
  -2.000   0.4268   0.00755   0.00224  -0.1558  0.8346  0.3512  -0.6084   0.0000   0.6169
  -1.500   0.4825   0.00729   0.00218  -0.1559  0.8234  0.4463  -0.6430   0.0000   0.5741
  -1.000   0.5384   0.00703   0.00218  -0.1559  0.8124  0.5625  -0.6794   0.0000   0.5400
  -0.500   0.5924   0.00684   0.00223  -0.1555  0.7998  0.6651  -0.7192   0.0000   0.5121
   0.000   0.6448   0.00675   0.00232  -0.1546  0.7864  0.7482  -0.7604   0.0000   0.4887
   1.000   0.7464   0.00673   0.00245  -0.1518  0.7570  0.8556  -0.8559   0.0000   0.4512
   1.500   0.7925   0.00673   0.00250  -0.1493  0.7408  0.9050  -0.9076   0.0000   0.4357
   2.000   0.8407   0.00662   0.00245  -0.1473  0.7212  0.9976  -0.9664   0.0000   0.4220
   2.500   0.8956   0.00679   0.00255  -0.1472  0.7007  0.9976  -1.0366   0.0000   0.4106
   3.000   0.9482   0.00701   0.00268  -0.1466  0.6751  0.9976  -1.1157   0.0000   0.4004
   3.500   0.9994   0.00728   0.00287  -0.1458  0.6471  0.9976  -1.2055   0.0000   0.3910
   4.000   1.0480   0.00765   0.00312  -0.1443  0.6110  0.9976  -1.3079   0.0000   0.3823
   4.500   1.0951   0.00810   0.00345  -0.1427  0.5717  0.9976  -1.4285   0.0000   0.3743
   5.000   1.1376   0.00875   0.00387  -0.1402  0.5184  0.9976  -1.5764   0.0000   0.3666
   5.500   1.1737   0.00972   0.00446  -0.1366  0.4394  0.9976  -1.8074   0.0000   0.3592
   6.000   1.2117   0.01067   0.00513  -0.1335  0.3762  0.9976  -2.0867   0.0000   0.3523
   6.500   1.2438   0.01190   0.00596  -0.1295  0.2988  0.9976  -2.4469   0.0000   0.3456
   7.000   1.2718   0.01337   0.00697  -0.1249  0.2186  0.9976  -2.9140   0.0000   0.3391
   7.500   1.3012   0.01476   0.00804  -0.1207  0.1594  0.9976  -3.4104   0.0000   0.3330
   8.000   1.3293   0.01620   0.00922  -0.1164  0.1118  0.9976  -3.9201   0.0000   0.3271
   8.500   1.3542   0.01783   0.01061  -0.1118  0.0694  0.9976  -4.4276   0.0000   0.3214
   9.000   1.3786   0.01951   0.01213  -0.1073  0.0407  0.9976  -4.9468   0.0000   0.3160
   9.500   1.4037   0.02117   0.01375  -0.1032  0.0241  0.9976  -5.4826   0.0000   0.3109
  10.000   1.4270   0.02301   0.01558  -0.0990  0.0143  0.9976  -6.0177   0.0000   0.3060


