XFLR5 v6.06

 Calculated polar for: fab_f_d

 1 1 Reynolds number fixed          Mach number fixed         

 xtrf =   1.000 (top)        1.000 (bottom)
 Mach =   0.000     Re =     0.200 e 6     Ncrit =   9.000

  alpha     CL        CD       CDp       Cm    Top Xtr Bot Xtr   Cpmin    Chinge    XCp    
 ------- -------- --------- --------- -------- ------- ------- -------- --------- ---------
  -8.000  -0.1582   0.04505   0.04090  -0.1519  0.9176  0.0520  -3.1753   0.0000  -0.7479
  -7.500  -0.0849   0.04925   0.04539  -0.1502  0.9157  0.0620  -2.4803   0.0000  -1.5825
  -7.000  -0.0587   0.04897   0.04507  -0.1492  0.9048  0.0775  -2.2067   0.0000  -2.3751
  -6.500  -0.0331   0.04670   0.04256  -0.1512  0.8942  0.1010  -2.0406   0.0000  -4.4481
  -6.000   0.0084   0.02350   0.01631  -0.1631  0.8868  0.0661  -2.7184   0.0000  20.2628
  -5.500   0.0443   0.02276   0.01546  -0.1603  0.8766  0.0725  -2.4833   0.0000   3.9673
  -5.000   0.1141   0.02124   0.01376  -0.1633  0.8732  0.0838  -2.1628   0.0000   1.7152
  -4.500   0.1556   0.02082   0.01324  -0.1611  0.8633  0.0952  -1.9354   0.0000   1.3084
  -4.000   0.2265   0.01961   0.01207  -0.1641  0.8592  0.1132  -1.6389   0.0000   0.9883
  -3.500   0.2710   0.01946   0.01196  -0.1625  0.8493  0.1322  -1.4214   0.0000   0.8597
  -3.000   0.3385   0.01863   0.01120  -0.1649  0.8449  0.1668  -1.1800   0.0000   0.7439
  -2.500   0.3859   0.01851   0.01128  -0.1639  0.8352  0.2118  -0.9966   0.0000   0.6797
  -2.000   0.4564   0.01759   0.01062  -0.1667  0.8302  0.2934  -0.7896   0.0000   0.6185
  -1.000   0.5694   0.01647   0.01078  -0.1670  0.8151  0.6628  -0.7907   0.0000   0.5443
  -0.500   0.6083   0.01670   0.01122  -0.1628  0.8038  0.7867  -0.8238   0.0000   0.5177
   0.500   0.6844   0.01620   0.01076  -0.1528  0.7860  0.9206  -0.8941   0.0000   0.4716
   1.000   0.7380   0.01602   0.01053  -0.1521  0.7746  0.9964  -0.9430   0.0000   0.4538
   1.500   0.8064   0.01574   0.01011  -0.1546  0.7655  0.9964  -1.0035   0.0000   0.4387
   2.000   0.8746   0.01545   0.00970  -0.1569  0.7566  0.9964  -1.0714   0.0000   0.4257
   2.500   0.9333   0.01530   0.00949  -0.1574  0.7437  0.9964  -1.1366   0.0000   0.4143
   3.000   0.9920   0.01512   0.00926  -0.1579  0.7308  0.9964  -1.2037   0.0000   0.4041
   3.500   1.0502   0.01493   0.00905  -0.1582  0.7174  0.9964  -1.2759   0.0000   0.3948
   4.000   1.1079   0.01460   0.00871  -0.1582  0.7017  0.9964  -1.3561   0.0000   0.3863
   4.500   1.1642   0.01441   0.00849  -0.1580  0.6850  0.9964  -1.4360   0.0000   0.3786
   5.000   1.2174   0.01433   0.00841  -0.1573  0.6657  0.9964  -1.5280   0.0000   0.3714
   5.500   1.2652   0.01436   0.00844  -0.1555  0.6410  0.9964  -1.6219   0.0000   0.3644
   6.000   1.3104   0.01458   0.00864  -0.1534  0.6130  0.9964  -1.7232   0.0000   0.3578
   6.500   1.3538   0.01496   0.00897  -0.1510  0.5826  0.9964  -1.8336   0.0000   0.3515
   7.000   1.3907   0.01558   0.00949  -0.1475  0.5474  0.9964  -1.9478   0.0000   0.3453
   7.500   1.4213   0.01639   0.01022  -0.1430  0.5123  0.9964  -2.1009   0.0000   0.3391
   8.000   1.4489   0.01743   0.01116  -0.1382  0.4779  0.9964  -2.3415   0.0000   0.3331
   8.500   1.4711   0.01867   0.01234  -0.1328  0.4435  0.9964  -2.5812   0.0000   0.3271
   9.000   1.4905   0.02013   0.01376  -0.1273  0.4102  0.9964  -2.8930   0.0000   0.3215
   9.500   1.5076   0.02185   0.01543  -0.1219  0.3784  0.9964  -3.2409   0.0000   0.3161
  10.000   1.5222   0.02384   0.01739  -0.1166  0.3471  0.9964  -3.5894   0.0000   0.3110


