XFLR5 v6.06

 Calculated polar for: fab_b_h

 1 1 Reynolds number fixed          Mach number fixed         

 xtrf =   1.000 (top)        1.000 (bottom)
 Mach =   0.000     Re =     0.200 e 6     Ncrit =   9.000

  alpha     CL        CD       CDp       Cm    Top Xtr Bot Xtr   Cpmin    Chinge    XCp    
 ------- -------- --------- --------- -------- ------- ------- -------- --------- ---------
  -8.000  -0.4526   0.03985   0.03570  -0.0990  0.9696  0.0126  -5.9476   0.0000   0.0201
  -7.500  -0.4064   0.03167   0.02659  -0.1069  0.9597  0.0133  -5.8069   0.0000  -0.0247
  -7.000  -0.3345   0.02541   0.01921  -0.1147  0.9561  0.0159  -5.5800   0.0000  -0.1059
  -6.500  -0.2765   0.02263   0.01591  -0.1170  0.9475  0.0255  -5.2522   0.0000  -0.1876
  -6.000  -0.2013   0.02181   0.01478  -0.1221  0.9431  0.0358  -4.5073   0.0000  -0.3739
  -5.500  -0.1443   0.02091   0.01364  -0.1232  0.9338  0.0433  -3.8938   0.0000  -0.6261
  -5.000  -0.0681   0.01951   0.01213  -0.1278  0.9299  0.0519  -3.2185   0.0000  -1.6680
  -4.500  -0.0100   0.01866   0.01123  -0.1290  0.9206  0.0677  -2.6513   0.0000  -12.9567
  -4.000   0.0673   0.01774   0.01041  -0.1339  0.9164  0.1071  -2.0039   0.0000   2.2732
  -3.500   0.1279   0.01709   0.00987  -0.1354  0.9069  0.1503  -1.6367   0.0000   1.3238
  -3.000   0.2073   0.01604   0.00907  -0.1405  0.9028  0.2238  -1.3104   0.0000   0.9353
  -2.500   0.2703   0.01543   0.00875  -0.1424  0.8940  0.3204  -1.0406   0.0000   0.7816
  -2.000   0.3451   0.01448   0.00826  -0.1462  0.8888  0.4621  -0.7588   0.0000   0.6766
  -1.500   0.4031   0.01397   0.00823  -0.1464  0.8786  0.6151  -0.5926   0.0000   0.6149
  -1.000   0.4675   0.01336   0.00791  -0.1468  0.8727  0.7495  -0.6337   0.0000   0.5649
  -0.500   0.5100   0.01320   0.00789  -0.1429  0.8602  0.8395  -0.6671   0.0000   0.5302
   0.000   0.5461   0.01286   0.00762  -0.1373  0.8472  0.9263  -0.6977   0.0000   0.5008
   0.500   0.6151   0.01257   0.00721  -0.1398  0.8361  0.9976  -0.7517   0.0000   0.4760
   1.000   0.6819   0.01236   0.00687  -0.1419  0.8242  0.9976  -0.8077   0.0000   0.4561
   1.500   0.7464   0.01221   0.00660  -0.1434  0.8115  0.9976  -0.8698   0.0000   0.4396
   2.000   0.8049   0.01215   0.00648  -0.1437  0.7955  0.9976  -0.9327   0.0000   0.4254
   2.500   0.8617   0.01212   0.00642  -0.1435  0.7780  0.9976  -1.0030   0.0000   0.4130
   3.000   0.9188   0.01204   0.00630  -0.1434  0.7591  0.9976  -1.0818   0.0000   0.4019
   3.500   0.9761   0.01199   0.00622  -0.1432  0.7391  0.9976  -1.1748   0.0000   0.3921
   4.000   1.0269   0.01204   0.00630  -0.1419  0.7138  0.9976  -1.2757   0.0000   0.3829
   4.500   1.0775   0.01214   0.00641  -0.1405  0.6856  0.9976  -1.3926   0.0000   0.3745
   5.000   1.1273   0.01232   0.00654  -0.1389  0.6526  0.9976  -1.5453   0.0000   0.3667
   5.500   1.1722   0.01267   0.00689  -0.1364  0.6130  0.9976  -1.7760   0.0000   0.3593
   6.000   1.2146   0.01319   0.00733  -0.1336  0.5682  0.9976  -2.0623   0.0000   0.3523
   6.500   1.2528   0.01392   0.00793  -0.1301  0.5181  0.9976  -2.3650   0.0000   0.3455
   7.000   1.2855   0.01487   0.00873  -0.1258  0.4626  0.9976  -2.8581   0.0000   0.3388
   7.500   1.3132   0.01602   0.00972  -0.1208  0.4052  0.9976  -3.3588   0.0000   0.3322
   8.000   1.3326   0.01744   0.01091  -0.1145  0.3449  0.9976  -3.8333   0.0000   0.3255
   8.500   1.3486   0.01917   0.01240  -0.1082  0.2813  0.9976  -4.3042   0.0000   0.3191
   9.000   1.3644   0.02114   0.01417  -0.1024  0.2260  0.9976  -4.7861   0.0000   0.3132
   9.500   1.3783   0.02343   0.01628  -0.0969  0.1746  0.9976  -5.2665   0.0000   0.3076
  10.000   1.3889   0.02617   0.01881  -0.0915  0.1256  0.9976  -5.7285   0.0000   0.3024


