XFLR5 v6.06

 Calculated polar for: fab_d_f

 1 1 Reynolds number fixed          Mach number fixed         

 xtrf =   1.000 (top)        1.000 (bottom)
 Mach =   0.000     Re =     0.400 e 6     Ncrit =   9.000

  alpha     CL        CD       CDp       Cm    Top Xtr Bot Xtr   Cpmin    Chinge    XCp    
 ------- -------- --------- --------- -------- ------- ------- -------- --------- ---------
  -8.000  -0.1937   0.01579   0.00993  -0.1607  0.9146  0.0249  -5.4020   0.0000  -0.6095
  -7.500  -0.1410   0.01487   0.00885  -0.1610  0.9054  0.0277  -4.7589   0.0000  -0.9283
  -7.000  -0.0833   0.01397   0.00776  -0.1620  0.8983  0.0314  -4.1169   0.0000  -1.7525
  -6.500  -0.0291   0.01320   0.00693  -0.1623  0.8898  0.0357  -3.5177   0.0000  -5.4853
  -6.000   0.0272   0.01258   0.00622  -0.1629  0.8823  0.0427  -2.9375   0.0000   6.3799
  -5.500   0.0834   0.01205   0.00562  -0.1633  0.8745  0.0530  -2.4996   0.0000   2.2513
  -5.000   0.1393   0.01172   0.00525  -0.1637  0.8674  0.0689  -2.1604   0.0000   1.4478
  -4.500   0.1957   0.01131   0.00486  -0.1641  0.8598  0.0870  -1.8356   0.0000   1.1030
  -4.000   0.2512   0.01091   0.00447  -0.1643  0.8517  0.1073  -1.5529   0.0000   0.9140
  -3.500   0.3086   0.01050   0.00412  -0.1648  0.8440  0.1392  -1.2768   0.0000   0.7910
  -3.000   0.3636   0.01018   0.00393  -0.1649  0.8363  0.1860  -1.0316   0.0000   0.7086
  -2.500   0.4218   0.00982   0.00370  -0.1656  0.8283  0.2484  -0.7987   0.0000   0.6461
  -2.000   0.4760   0.00952   0.00363  -0.1656  0.8193  0.3291  -0.6854   0.0000   0.6001
  -1.500   0.5350   0.00918   0.00355  -0.1665  0.8120  0.4446  -0.7231   0.0000   0.5624
  -1.000   0.5880   0.00879   0.00361  -0.1660  0.8015  0.5929  -0.7591   0.0000   0.5327
  -0.500   0.6409   0.00864   0.00376  -0.1652  0.7922  0.7157  -0.7997   0.0000   0.5073
   0.000   0.6952   0.00860   0.00377  -0.1644  0.7827  0.7859  -0.8416   0.0000   0.4854
   0.500   0.7440   0.00858   0.00383  -0.1625  0.7710  0.8343  -0.8872   0.0000   0.4667
   1.000   0.7919   0.00856   0.00386  -0.1604  0.7594  0.8730  -0.9328   0.0000   0.4502
   1.500   0.8353   0.00846   0.00380  -0.1573  0.7463  0.9145  -0.9839   0.0000   0.4353
   2.000   0.8849   0.00827   0.00365  -0.1556  0.7331  0.9961  -1.0403   0.0000   0.4222
   2.500   0.9419   0.00834   0.00366  -0.1560  0.7167  0.9970  -1.1044   0.0000   0.4115
   3.000   0.9971   0.00846   0.00373  -0.1561  0.6991  0.9970  -1.1781   0.0000   0.4018
   3.500   1.0512   0.00863   0.00382  -0.1558  0.6801  0.9970  -1.2525   0.0000   0.3929
   4.000   1.1012   0.00884   0.00400  -0.1547  0.6542  0.9970  -1.3381   0.0000   0.3845
   4.500   1.1503   0.00914   0.00425  -0.1535  0.6268  0.9970  -1.4304   0.0000   0.3768
   5.000   1.1961   0.00956   0.00456  -0.1515  0.5931  0.9970  -1.5348   0.0000   0.3694
   5.500   1.2392   0.01010   0.00499  -0.1492  0.5550  0.9970  -1.6457   0.0000   0.3625
   6.000   1.2790   0.01077   0.00553  -0.1463  0.5153  0.9970  -1.7867   0.0000   0.3558
   6.500   1.3154   0.01157   0.00619  -0.1428  0.4737  0.9970  -2.0300   0.0000   0.3493
   7.000   1.3470   0.01245   0.00694  -0.1384  0.4321  0.9970  -2.3129   0.0000   0.3428
   7.500   1.3755   0.01352   0.00786  -0.1338  0.3878  0.9970  -2.7442   0.0000   0.3366
   8.000   1.4009   0.01478   0.00896  -0.1289  0.3417  0.9970  -3.1819   0.0000   0.3306
   8.500   1.4224   0.01632   0.01029  -0.1237  0.2913  0.9970  -3.6192   0.0000   0.3248
   9.000   1.4411   0.01816   0.01190  -0.1185  0.2415  0.9970  -4.0575   0.0000   0.3193
   9.500   1.4602   0.02014   0.01369  -0.1137  0.1975  0.9970  -4.5142   0.0000   0.3141
  10.000   1.4770   0.02240   0.01576  -0.1091  0.1560  0.9970  -4.9704   0.0000   0.3093


