XFLR5 v6.06

 Calculated polar for: fab_b_h

 1 1 Reynolds number fixed          Mach number fixed         

 xtrf =   1.000 (top)        1.000 (bottom)
 Mach =   0.000     Re =     0.350 e 6     Ncrit =   9.000

  alpha     CL        CD       CDp       Cm    Top Xtr Bot Xtr   Cpmin    Chinge    XCp    
 ------- -------- --------- --------- -------- ------- ------- -------- --------- ---------
  -8.000  -0.3433   0.01934   0.01382  -0.1315  0.9477  0.0065  -6.7539   0.0000  -0.1481
  -7.500  -0.2722   0.01718   0.01127  -0.1361  0.9446  0.0073  -6.0500   0.0000  -0.2671
  -7.000  -0.1972   0.01550   0.00935  -0.1410  0.9427  0.0103  -5.3280   0.0000  -0.4861
  -6.500  -0.1408   0.01454   0.00824  -0.1416  0.9340  0.0189  -4.7214   0.0000  -0.7829
  -6.000  -0.0693   0.01366   0.00724  -0.1452  0.9306  0.0261  -3.9881   0.0000  -1.8944
  -5.500  -0.0089   0.01296   0.00647  -0.1466  0.9230  0.0333  -3.3406   0.0000  -16.5919
  -5.000   0.0577   0.01219   0.00569  -0.1491  0.9174  0.0482  -2.6945   0.0000   2.8804
  -4.500   0.1178   0.01163   0.00514  -0.1502  0.9095  0.0724  -2.1177   0.0000   1.5458
  -4.000   0.1824   0.01104   0.00458  -0.1522  0.9025  0.1022  -1.6751   0.0000   1.0961
  -3.500   0.2389   0.01060   0.00426  -0.1526  0.8922  0.1469  -1.3834   0.0000   0.8964
  -3.000   0.3000   0.01007   0.00400  -0.1540  0.8841  0.2317  -1.1040   0.0000   0.7685
  -2.500   0.3581   0.00962   0.00376  -0.1547  0.8741  0.3166  -0.8480   0.0000   0.6854
  -2.000   0.4136   0.00925   0.00364  -0.1548  0.8630  0.4161  -0.6232   0.0000   0.6265
  -1.500   0.4704   0.00890   0.00360  -0.1551  0.8530  0.5367  -0.6345   0.0000   0.5809
  -1.000   0.5273   0.00859   0.00358  -0.1550  0.8424  0.6594  -0.6716   0.0000   0.5444
  -0.500   0.5790   0.00847   0.00364  -0.1537  0.8299  0.7508  -0.7102   0.0000   0.5152
   0.000   0.6284   0.00841   0.00369  -0.1518  0.8167  0.8199  -0.7494   0.0000   0.4906
   0.500   0.6750   0.00835   0.00369  -0.1492  0.8028  0.8740  -0.7922   0.0000   0.4695
   1.000   0.7158   0.00821   0.00361  -0.1452  0.7885  0.9385  -0.8354   0.0000   0.4508
   1.500   0.7780   0.00814   0.00346  -0.1465  0.7727  0.9976  -0.8966   0.0000   0.4357
   2.000   0.8350   0.00824   0.00347  -0.1468  0.7563  0.9976  -0.9603   0.0000   0.4227
   2.500   0.8889   0.00836   0.00354  -0.1464  0.7364  0.9976  -1.0295   0.0000   0.4110
   3.000   0.9418   0.00850   0.00364  -0.1458  0.7151  0.9976  -1.1080   0.0000   0.4006
   3.500   0.9933   0.00869   0.00378  -0.1449  0.6897  0.9976  -1.1973   0.0000   0.3910
   4.000   1.0434   0.00894   0.00398  -0.1436  0.6613  0.9976  -1.3003   0.0000   0.3823
   4.500   1.0910   0.00929   0.00424  -0.1419  0.6262  0.9976  -1.4189   0.0000   0.3741
   5.000   1.1367   0.00974   0.00460  -0.1399  0.5870  0.9976  -1.5701   0.0000   0.3665
   5.500   1.1793   0.01033   0.00506  -0.1373  0.5416  0.9976  -1.8142   0.0000   0.3593
   6.000   1.2185   0.01108   0.00565  -0.1342  0.4919  0.9976  -2.0961   0.0000   0.3523
   6.500   1.2522   0.01206   0.00638  -0.1302  0.4301  0.9976  -2.4564   0.0000   0.3455
   7.000   1.2783   0.01331   0.00728  -0.1250  0.3562  0.9976  -2.9260   0.0000   0.3387
   7.500   1.3031   0.01476   0.00838  -0.1198  0.2851  0.9976  -3.4095   0.0000   0.3322
   8.000   1.3260   0.01641   0.00967  -0.1147  0.2166  0.9976  -3.9013   0.0000   0.3260
   8.500   1.3470   0.01827   0.01118  -0.1096  0.1535  0.9976  -4.3978   0.0000   0.3202
   9.000   1.3697   0.02008   0.01279  -0.1050  0.1112  0.9976  -4.9205   0.0000   0.3148
   9.500   1.3912   0.02203   0.01461  -0.1005  0.0777  0.9976  -5.4481   0.0000   0.3096
  10.000   1.4096   0.02427   0.01673  -0.0959  0.0496  0.9976  -5.9633   0.0000   0.3046


