XFLR5 v6.06

 Calculated polar for: fab_d_f

 1 1 Reynolds number fixed          Mach number fixed         

 xtrf =   1.000 (top)        1.000 (bottom)
 Mach =   0.000     Re =     0.200 e 6     Ncrit =   9.000

  alpha     CL        CD       CDp       Cm    Top Xtr Bot Xtr   Cpmin    Chinge    XCp    
 ------- -------- --------- --------- -------- ------- ------- -------- --------- ---------
  -7.000  -0.1843   0.04882   0.04505  -0.1278  0.9292  0.0630  -2.9713   0.0000  -0.4660
  -6.500  -0.1596   0.02680   0.02042  -0.1406  0.9162  0.0502  -3.6737   0.0000  -0.6577
  -5.500  -0.0362   0.02185   0.01455  -0.1449  0.9037  0.0628  -2.6964   0.0000  -3.8571
  -5.000   0.0418   0.02009   0.01267  -0.1497  0.9013  0.0770  -2.3212   0.0000   3.9127
  -4.500   0.0904   0.01939   0.01192  -0.1489  0.8915  0.0933  -2.0604   0.0000   1.9292
  -4.000   0.1654   0.01820   0.01078  -0.1528  0.8877  0.1186  -1.7248   0.0000   1.1898
  -3.500   0.2194   0.01768   0.01032  -0.1529  0.8783  0.1468  -1.4663   0.0000   0.9572
  -3.000   0.2904   0.01675   0.00952  -0.1560  0.8734  0.1983  -1.1791   0.0000   0.7941
  -2.500   0.3449   0.01636   0.00939  -0.1563  0.8642  0.2678  -0.9509   0.0000   0.7080
  -2.000   0.4150   0.01544   0.00887  -0.1593  0.8585  0.3872  -0.7167   0.0000   0.6367
  -1.000   0.5281   0.01446   0.00891  -0.1585  0.8425  0.7275  -0.7175   0.0000   0.5510
  -0.500   0.5687   0.01455   0.00912  -0.1545  0.8303  0.8164  -0.7508   0.0000   0.5217
   0.000   0.6030   0.01445   0.00909  -0.1488  0.8184  0.8879  -0.7812   0.0000   0.4961
   1.000   0.7238   0.01375   0.00820  -0.1495  0.7991  0.9970  -0.8836   0.0000   0.4544
   1.500   0.7833   0.01377   0.00811  -0.1504  0.7863  0.9970  -0.9410   0.0000   0.4392
   2.000   0.8429   0.01373   0.00801  -0.1511  0.7734  0.9970  -1.0025   0.0000   0.4259
   2.500   0.9028   0.01356   0.00778  -0.1516  0.7593  0.9970  -1.0680   0.0000   0.4140
   3.000   0.9608   0.01348   0.00766  -0.1518  0.7447  0.9970  -1.1410   0.0000   0.4034
   3.500   1.0182   0.01329   0.00745  -0.1518  0.7277  0.9970  -1.2180   0.0000   0.3938
   4.000   1.0757   0.01315   0.00728  -0.1517  0.7101  0.9970  -1.3066   0.0000   0.3852
   4.500   1.1247   0.01321   0.00739  -0.1502  0.6874  0.9970  -1.3968   0.0000   0.3771
   5.000   1.1757   0.01322   0.00739  -0.1489  0.6617  0.9970  -1.5029   0.0000   0.3695
   5.500   1.2239   0.01341   0.00757  -0.1472  0.6326  0.9970  -1.6181   0.0000   0.3625
   6.000   1.2680   0.01374   0.00786  -0.1447  0.5967  0.9970  -1.7576   0.0000   0.3556
   6.500   1.3091   0.01429   0.00834  -0.1418  0.5582  0.9970  -1.9914   0.0000   0.3491
   7.000   1.3454   0.01505   0.00898  -0.1382  0.5165  0.9970  -2.2644   0.0000   0.3428
   7.500   1.3764   0.01601   0.00984  -0.1337  0.4737  0.9970  -2.6101   0.0000   0.3365
   8.000   1.4001   0.01714   0.01085  -0.1281  0.4310  0.9970  -3.0264   0.0000   0.3301
   8.500   1.4201   0.01849   0.01212  -0.1222  0.3882  0.9970  -3.4420   0.0000   0.3239
   9.000   1.4369   0.02010   0.01364  -0.1162  0.3460  0.9970  -3.8568   0.0000   0.3180
   9.500   1.4488   0.02210   0.01552  -0.1101  0.3020  0.9970  -4.2578   0.0000   0.3123
  10.000   1.4587   0.02447   0.01777  -0.1044  0.2589  0.9970  -4.6586   0.0000   0.3071


