XFLR5 v6.06

 Calculated polar for: fab_d_f

 1 1 Reynolds number fixed          Mach number fixed         

 xtrf =   1.000 (top)        1.000 (bottom)
 Mach =   0.000     Re =     0.150 e 6     Ncrit =   9.000

  alpha     CL        CD       CDp       Cm    Top Xtr Bot Xtr   Cpmin    Chinge    XCp    
 ------- -------- --------- --------- -------- ------- ------- -------- --------- ---------
  -8.000  -0.2257   0.09411   0.09048  -0.0662  0.9655  0.0905  -1.8451   0.0000  -0.0596
  -7.500  -0.2105   0.08633   0.08271  -0.0721  0.9568  0.0960  -1.8095   0.0000  -0.1091
  -7.000  -0.2165   0.07949   0.07592  -0.0759  0.9435  0.1008  -1.8585   0.0000  -0.1155
  -6.000  -0.2333   0.05082   0.04652  -0.1084  0.9201  0.0816  -2.6600   0.0000  -0.2292
  -5.500  -0.1482   0.03009   0.02303  -0.1271  0.9167  0.0660  -2.9682   0.0000  -0.6326
  -5.000  -0.0849   0.02740   0.01962  -0.1297  0.9097  0.0747  -2.5628   0.0000  -1.3173
  -4.500  -0.0156   0.02570   0.01780  -0.1329  0.9032  0.0888  -2.2652   0.0000  -8.4633
  -4.000   0.0472   0.02458   0.01659  -0.1349  0.8951  0.1091  -1.9898   0.0000   3.1666
  -3.500   0.1175   0.02362   0.01563  -0.1381  0.8883  0.1373  -1.6872   0.0000   1.4459
  -2.500   0.2511   0.02216   0.01449  -0.1434  0.8733  0.2354  -1.1450   0.0000   0.8277
  -1.500   0.3917   0.02048   0.01395  -0.1495  0.8583  0.5265  -0.6707   0.0000   0.6341
  -1.000   0.4332   0.02046   0.01456  -0.1460  0.8462  0.7258  -0.6549   0.0000   0.5884
   0.000   0.5240   0.01945   0.01368  -0.1377  0.8280  0.9970  -0.7276   0.0000   0.5124
   0.500   0.5861   0.01964   0.01366  -0.1396  0.8154  0.9970  -0.7750   0.0000   0.4869
   1.500   0.7323   0.01876   0.01247  -0.1452  0.7980  0.9970  -0.8986   0.0000   0.4456
   2.500   0.8513   0.01849   0.01208  -0.1459  0.7710  0.9970  -1.0231   0.0000   0.4175
   3.000   0.9138   0.01805   0.01162  -0.1465  0.7570  0.9970  -1.0961   0.0000   0.4058
   3.500   0.9749   0.01769   0.01127  -0.1468  0.7423  0.9970  -1.1754   0.0000   0.3955
   4.000   1.0382   0.01710   0.01069  -0.1473  0.7261  0.9970  -1.2643   0.0000   0.3861
   4.500   1.0973   0.01672   0.01034  -0.1472  0.7078  0.9970  -1.3630   0.0000   0.3778
   5.000   1.1488   0.01654   0.01022  -0.1458  0.6845  0.9970  -1.4656   0.0000   0.3699
   5.500   1.2011   0.01634   0.01007  -0.1445  0.6582  0.9970  -1.5829   0.0000   0.3626
   6.000   1.2515   0.01633   0.01008  -0.1429  0.6280  0.9970  -1.7230   0.0000   0.3558
   6.500   1.2997   0.01648   0.01017  -0.1409  0.5923  0.9970  -1.9505   0.0000   0.3493
   7.000   1.3389   0.01703   0.01069  -0.1376  0.5518  0.9970  -2.2253   0.0000   0.3429
   7.500   1.3744   0.01782   0.01140  -0.1337  0.5087  0.9970  -2.5253   0.0000   0.3367
   8.000   1.4036   0.01885   0.01235  -0.1289  0.4648  0.9970  -2.9611   0.0000   0.3305
   8.500   1.4247   0.02009   0.01350  -0.1229  0.4215  0.9970  -3.3766   0.0000   0.3242
   9.000   1.4415   0.02160   0.01493  -0.1167  0.3791  0.9970  -3.7847   0.0000   0.3181
   9.500   1.4539   0.02342   0.01668  -0.1102  0.3378  0.9970  -4.1818   0.0000   0.3122
  10.000   1.4605   0.02566   0.01884  -0.1037  0.2948  0.9970  -4.5567   0.0000   0.3065


