XFLR5 v6.06

 Calculated polar for: fab_d_f

 1 1 Reynolds number fixed          Mach number fixed         

 xtrf =   1.000 (top)        1.000 (bottom)
 Mach =   0.000     Re =     0.350 e 6     Ncrit =   9.000

  alpha     CL        CD       CDp       Cm    Top Xtr Bot Xtr   Cpmin    Chinge    XCp    
 ------- -------- --------- --------- -------- ------- ------- -------- --------- ---------
  -8.000  -0.2061   0.01765   0.01175  -0.1583  0.9207  0.0271  -5.3921   0.0000  -0.5461
  -7.500  -0.1442   0.01624   0.01011  -0.1606  0.9149  0.0298  -4.7149   0.0000  -0.8997
  -7.000  -0.0923   0.01528   0.00901  -0.1606  0.9057  0.0333  -4.1108   0.0000  -1.5409
  -6.500  -0.0311   0.01427   0.00784  -0.1623  0.8998  0.0381  -3.4870   0.0000  -5.1028
  -6.000   0.0206   0.01365   0.00716  -0.1620  0.8905  0.0452  -2.9324   0.0000   8.2976
  -5.500   0.0792   0.01314   0.00657  -0.1630  0.8838  0.0574  -2.4805   0.0000   2.3522
  -5.000   0.1334   0.01267   0.00608  -0.1630  0.8756  0.0730  -2.1580   0.0000   1.4962
  -4.500   0.1913   0.01216   0.00556  -0.1638  0.8689  0.0903  -1.8392   0.0000   1.1213
  -4.000   0.2463   0.01168   0.00510  -0.1639  0.8602  0.1113  -1.5592   0.0000   0.9255
  -3.500   0.3026   0.01127   0.00476  -0.1642  0.8523  0.1434  -1.2881   0.0000   0.7998
  -3.000   0.3596   0.01086   0.00448  -0.1647  0.8447  0.1926  -1.0387   0.0000   0.7132
  -2.500   0.4148   0.01054   0.00433  -0.1649  0.8361  0.2568  -0.8120   0.0000   0.6510
  -2.000   0.4737   0.01014   0.00414  -0.1657  0.8282  0.3478  -0.6833   0.0000   0.6021
  -1.500   0.5273   0.00983   0.00418  -0.1656  0.8191  0.4686  -0.7177   0.0000   0.5653
  -1.000   0.5839   0.00943   0.00421  -0.1657  0.8103  0.6296  -0.7559   0.0000   0.5342
  -0.500   0.6356   0.00931   0.00433  -0.1644  0.8003  0.7391  -0.7959   0.0000   0.5084
   0.000   0.6854   0.00932   0.00443  -0.1627  0.7896  0.8044  -0.8350   0.0000   0.4864
   0.500   0.7354   0.00929   0.00442  -0.1609  0.7789  0.8523  -0.8812   0.0000   0.4671
   1.000   0.7830   0.00920   0.00434  -0.1586  0.7684  0.8934  -0.9268   0.0000   0.4502
   1.500   0.8218   0.00901   0.00421  -0.1544  0.7552  0.9441  -0.9744   0.0000   0.4349
   2.000   0.8825   0.00893   0.00410  -0.1554  0.7413  0.9970  -1.0377   0.0000   0.4226
   2.500   0.9396   0.00899   0.00411  -0.1559  0.7262  0.9970  -1.1018   0.0000   0.4118
   3.000   0.9953   0.00907   0.00412  -0.1559  0.7092  0.9970  -1.1757   0.0000   0.4019
   3.500   1.0474   0.00922   0.00426  -0.1553  0.6898  0.9970  -1.2484   0.0000   0.3929
   4.000   1.0988   0.00939   0.00437  -0.1544  0.6664  0.9970  -1.3349   0.0000   0.3845
   4.500   1.1477   0.00965   0.00460  -0.1530  0.6393  0.9970  -1.4268   0.0000   0.3768
   5.000   1.1945   0.01002   0.00489  -0.1513  0.6083  0.9970  -1.5318   0.0000   0.3694
   5.500   1.2376   0.01051   0.00529  -0.1489  0.5706  0.9970  -1.6426   0.0000   0.3624
   6.000   1.2780   0.01115   0.00581  -0.1460  0.5319  0.9970  -1.7834   0.0000   0.3557
   6.500   1.3143   0.01194   0.00646  -0.1425  0.4905  0.9970  -2.0242   0.0000   0.3492
   7.000   1.3463   0.01280   0.00721  -0.1382  0.4486  0.9970  -2.2915   0.0000   0.3427
   7.500   1.3745   0.01385   0.00812  -0.1335  0.4050  0.9970  -2.7168   0.0000   0.3364
   8.000   1.3997   0.01509   0.00922  -0.1284  0.3615  0.9970  -3.1510   0.0000   0.3304
   8.500   1.4211   0.01658   0.01054  -0.1232  0.3162  0.9970  -3.5859   0.0000   0.3245
   9.000   1.4404   0.01833   0.01212  -0.1180  0.2688  0.9970  -4.0260   0.0000   0.3190
   9.500   1.4587   0.02032   0.01394  -0.1131  0.2241  0.9970  -4.4764   0.0000   0.3138
  10.000   1.4748   0.02259   0.01604  -0.1084  0.1824  0.9970  -4.9274   0.0000   0.3089


