XFLR5 v6.06

 Calculated polar for: fab_b_h

 1 1 Reynolds number fixed          Mach number fixed         

 xtrf =   1.000 (top)        1.000 (bottom)
 Mach =   0.000     Re =     0.050 e 6     Ncrit =   9.000

  alpha     CL        CD       CDp       Cm    Top Xtr Bot Xtr   Cpmin    Chinge    XCp    
 ------- -------- --------- --------- -------- ------- ------- -------- --------- ---------
  -8.000  -0.3698   0.11312   0.10690  -0.0253  1.0024  0.2305  -1.8207   0.0000   0.1727
  -7.500  -0.3846   0.10941   0.10337  -0.0209  1.0024  0.2444  -1.8286   0.0000   0.1879
  -7.000  -0.4024   0.10586   0.09998  -0.0160  1.0024  0.2586  -1.8365   0.0000   0.2034
  -6.500  -0.4213   0.10221   0.09650  -0.0107  1.0024  0.2728  -1.8408   0.0000   0.2186
  -6.000  -0.4444   0.09872   0.09318  -0.0071  1.0024  0.2883  -1.8658   0.0000   0.2289
  -5.500  -0.4432   0.09300   0.08755  -0.0026  1.0024  0.3093  -1.8016   0.0000   0.2394
  -5.000  -0.4591   0.08873   0.08343  -0.0013  1.0024  0.3356  -1.8089   0.0000   0.2431
  -4.500  -0.4584   0.08344   0.07822   0.0017  1.0024  0.3662  -1.7544   0.0000   0.2500
  -4.000  -0.4509   0.07817   0.07299   0.0070  1.0024  0.4030  -1.6744   0.0000   0.2621
  -3.500  -0.2517   0.04059   0.03209  -0.0737  1.0024  0.1604  -2.2744   0.0000  -0.0495
  -3.000  -0.1858   0.03627   0.02694  -0.0779  1.0024  0.1847  -2.0247   0.0000  -0.1780
  -2.500  -0.1252   0.03379   0.02393  -0.0804  1.0024  0.2321  -1.7385   0.0000  -0.4037
  -2.000  -0.0713   0.03238   0.02257  -0.0814  1.0024  0.2984  -1.5558   0.0000  -0.9080
  -1.500  -0.0157   0.03150   0.02193  -0.0824  1.0024  0.4043  -1.3584   0.0000  -5.0760
  -1.000   0.0367   0.03092   0.02224  -0.0816  1.0024  0.6070  -1.1528   0.0000   2.4924
  -0.500   0.0264   0.02946   0.02192  -0.0673  1.0024  0.9604  -1.0732   0.0000   2.8241
   0.000   0.0881   0.03099   0.02233  -0.0734  1.0024  0.9976  -0.8562   0.0000   1.0866
   0.500   0.1348   0.03282   0.02359  -0.0752  1.0024  0.9976  -0.6687   0.0000   0.8086
   1.000   0.1775   0.03485   0.02521  -0.0765  1.0024  0.9976  -0.5110   0.0000   0.6799
   1.500   0.2712   0.03830   0.02824  -0.0871  0.9745  0.9976  -0.5173   0.0000   0.5689
   2.000   0.3520   0.04115   0.03081  -0.0947  0.9456  0.9976  -0.5722   0.0000   0.5160
   2.500   0.4268   0.04372   0.03321  -0.1006  0.9164  0.9976  -0.6291   0.0000   0.4823
   3.000   0.4958   0.04608   0.03549  -0.1052  0.8873  0.9976  -0.6863   0.0000   0.4580
   3.500   0.5616   0.04828   0.03768  -0.1087  0.8579  0.9976  -0.7489   0.0000   0.4390
   4.000   0.6182   0.05031   0.03977  -0.1105  0.8269  0.9976  -0.8093   0.0000   0.4236
   4.500   0.6702   0.05228   0.04184  -0.1113  0.7951  0.9976  -0.8744   0.0000   0.4104
   5.000   0.7231   0.05414   0.04386  -0.1119  0.7631  0.9976  -0.9488   0.0000   0.3986
   5.500   0.7797   0.05564   0.04557  -0.1123  0.7307  0.9976  -1.0380   0.0000   0.3874
   6.000   0.8413   0.05658   0.04678  -0.1125  0.6988  0.9976  -1.1483   0.0000   0.3766
   6.500   0.9100   0.05654   0.04707  -0.1124  0.6674  0.9976  -1.2942   0.0000   0.3658
   7.000   0.9463   0.05807   0.04890  -0.1095  0.6304  0.9976  -1.4122   0.0000   0.3573
   7.500   1.0205   0.05606   0.04735  -0.1075  0.5972  0.9976  -1.7147   0.0000   0.3463
   8.000   1.1611   0.04588   0.03792  -0.1060  0.5661  0.9976  -2.3527   0.0000   0.3316
   8.500   1.3075   0.03716   0.02967  -0.1078  0.5037  0.9976  -3.2894   0.0000   0.3219
   9.000   1.3594   0.03642   0.02884  -0.1031  0.4294  0.9976  -3.9365   0.0000   0.3145
   9.500   1.3821   0.03785   0.02998  -0.0960  0.3557  0.9976  -4.4118   0.0000   0.3072
  10.000   1.3913   0.04041   0.03210  -0.0881  0.2863  0.9976  -4.7951   0.0000   0.3003


