XFLR5 v6.06

 Calculated polar for: fab_b_h

 1 1 Reynolds number fixed          Mach number fixed         

 xtrf =   1.000 (top)        1.000 (bottom)
 Mach =   0.000     Re =     0.450 e 6     Ncrit =   9.000

  alpha     CL        CD       CDp       Cm    Top Xtr Bot Xtr   Cpmin    Chinge    XCp    
 ------- -------- --------- --------- -------- ------- ------- -------- --------- ---------
  -8.000  -0.2980   0.01620   0.01070  -0.1407  0.9470  0.0050  -6.7048   0.0000  -0.2393
  -7.500  -0.2280   0.01460   0.00881  -0.1446  0.9439  0.0054  -5.9336   0.0000  -0.4044
  -7.000  -0.1685   0.01340   0.00741  -0.1460  0.9364  0.0065  -5.2501   0.0000  -0.6417
  -6.500  -0.1019   0.01236   0.00629  -0.1487  0.9311  0.0139  -4.5574   0.0000  -1.2468
  -6.000  -0.0418   0.01172   0.00556  -0.1499  0.9231  0.0208  -3.8972   0.0000  -3.4144
  -5.500   0.0226   0.01106   0.00483  -0.1520  0.9162  0.0284  -3.2313   0.0000   7.1216
  -5.000   0.0794   0.01055   0.00430  -0.1524  0.9066  0.0406  -2.6382   0.0000   2.2049
  -4.500   0.1400   0.01007   0.00384  -0.1537  0.8986  0.0649  -2.0552   0.0000   1.3648
  -4.000   0.1978   0.00967   0.00346  -0.1542  0.8885  0.0906  -1.6413   0.0000   1.0404
  -3.500   0.2535   0.00930   0.00320  -0.1544  0.8781  0.1296  -1.3529   0.0000   0.8663
  -3.000   0.3111   0.00894   0.00297  -0.1550  0.8688  0.1867  -1.0829   0.0000   0.7531
  -2.500   0.3685   0.00848   0.00282  -0.1557  0.8585  0.2920  -0.8270   0.0000   0.6757
  -2.000   0.4232   0.00818   0.00273  -0.1556  0.8473  0.3803  -0.6058   0.0000   0.6198
  -1.500   0.4787   0.00788   0.00269  -0.1557  0.8365  0.4862  -0.6403   0.0000   0.5764
  -1.000   0.5341   0.00760   0.00270  -0.1556  0.8249  0.6066  -0.6764   0.0000   0.5417
  -0.500   0.5890   0.00745   0.00274  -0.1552  0.8136  0.7054  -0.7168   0.0000   0.5131
   0.000   0.6402   0.00738   0.00281  -0.1538  0.7999  0.7814  -0.7572   0.0000   0.4893
   0.500   0.6903   0.00736   0.00288  -0.1522  0.7863  0.8357  -0.8020   0.0000   0.4689
   1.000   0.7368   0.00732   0.00290  -0.1497  0.7711  0.8869  -0.8495   0.0000   0.4511
   1.500   0.7795   0.00723   0.00284  -0.1463  0.7555  0.9467  -0.8988   0.0000   0.4351
   2.000   0.8387   0.00725   0.00283  -0.1471  0.7368  0.9976  -0.9642   0.0000   0.4222
   2.500   0.8930   0.00739   0.00292  -0.1469  0.7165  0.9976  -1.0339   0.0000   0.4107
   3.000   0.9460   0.00758   0.00303  -0.1463  0.6937  0.9976  -1.1130   0.0000   0.4004
   3.500   0.9972   0.00783   0.00320  -0.1454  0.6670  0.9976  -1.2025   0.0000   0.3910
   4.000   1.0464   0.00814   0.00343  -0.1441  0.6347  0.9976  -1.3051   0.0000   0.3823
   4.500   1.0936   0.00855   0.00374  -0.1423  0.5969  0.9976  -1.4249   0.0000   0.3742
   5.000   1.1385   0.00907   0.00412  -0.1402  0.5542  0.9976  -1.5758   0.0000   0.3666
   5.500   1.1794   0.00977   0.00463  -0.1375  0.5025  0.9976  -1.8198   0.0000   0.3594
   6.000   1.2130   0.01080   0.00530  -0.1334  0.4259  0.9976  -2.0866   0.0000   0.3522
   6.500   1.2460   0.01191   0.00609  -0.1295  0.3576  0.9976  -2.4498   0.0000   0.3454
   7.500   1.2995   0.01483   0.00819  -0.1199  0.2073  0.9976  -3.4031   0.0000   0.3325
   8.000   1.3262   0.01635   0.00942  -0.1154  0.1507  0.9976  -3.9099   0.0000   0.3266
   8.500   1.3526   0.01790   0.01076  -0.1111  0.1084  0.9976  -4.4335   0.0000   0.3210
   9.000   1.3764   0.01963   0.01231  -0.1066  0.0727  0.9976  -4.9562   0.0000   0.3156
   9.500   1.3972   0.02160   0.01412  -0.1019  0.0428  0.9976  -5.4712   0.0000   0.3103
  10.000   1.4193   0.02354   0.01604  -0.0977  0.0268  0.9976  -6.0044   0.0000   0.3054


