XFLR5 v6.06

 Calculated polar for: fab_h_b

 1 1 Reynolds number fixed          Mach number fixed         

 xtrf =   1.000 (top)        1.000 (bottom)
 Mach =   0.000     Re =     0.450 e 6     Ncrit =   9.000

  alpha     CL        CD       CDp       Cm    Top Xtr Bot Xtr   Cpmin    Chinge    XCp    
 ------- -------- --------- --------- -------- ------- ------- -------- --------- ---------
  -8.000  -0.0836   0.01742   0.01136  -0.1795  0.8318  0.0383  -3.9742   0.0000  -1.9852
  -7.500  -0.0303   0.01640   0.01014  -0.1799  0.8274  0.0412  -3.5872   0.0000  -5.9183
  -7.000   0.0230   0.01552   0.00910  -0.1800  0.8221  0.0444  -3.2343   0.0000   8.3367
  -6.500   0.0791   0.01474   0.00822  -0.1806  0.8177  0.0484  -2.9016   0.0000   2.6076
  -6.000   0.1343   0.01406   0.00750  -0.1810  0.8137  0.0529  -2.5935   0.0000   1.6375
  -5.500   0.1876   0.01346   0.00693  -0.1810  0.8085  0.0586  -2.3087   0.0000   1.2404
  -5.000   0.2444   0.01292   0.00632  -0.1815  0.8039  0.0665  -2.0386   0.0000   1.0106
  -4.500   0.3013   0.01250   0.00589  -0.1820  0.7991  0.0762  -1.7778   0.0000   0.8671
  -4.000   0.3553   0.01212   0.00556  -0.1819  0.7931  0.0875  -1.5461   0.0000   0.7718
  -3.500   0.4133   0.01176   0.00520  -0.1826  0.7887  0.1033  -1.3179   0.0000   0.6990
  -3.000   0.4696   0.01146   0.00499  -0.1830  0.7831  0.1283  -1.1107   0.0000   0.6448
  -2.500   0.5252   0.01114   0.00479  -0.1831  0.7769  0.1636  -0.9197   0.0000   0.6024
  -2.000   0.5857   0.01086   0.00456  -0.1843  0.7720  0.2093  -0.8539   0.0000   0.5670
  -1.500   0.6388   0.01060   0.00453  -0.1840  0.7648  0.2693  -0.8902   0.0000   0.5393
  -1.000   0.6982   0.01019   0.00438  -0.1850  0.7589  0.3752  -0.9307   0.0000   0.5153
  -0.500   0.7534   0.00967   0.00446  -0.1854  0.7515  0.5757  -0.9750   0.0000   0.4954
   0.000   0.8082   0.00942   0.00456  -0.1849  0.7444  0.7371  -1.0201   0.0000   0.4773
   0.500   0.8596   0.00947   0.00467  -0.1837  0.7362  0.7870  -1.0652   0.0000   0.4615
   1.000   0.9138   0.00941   0.00459  -0.1830  0.7284  0.8219  -1.1200   0.0000   0.4473
   1.500   0.9617   0.00938   0.00461  -0.1811  0.7178  0.8493  -1.1710   0.0000   0.4346
   2.000   1.0113   0.00935   0.00460  -0.1796  0.7082  0.8722  -1.2276   0.0000   0.4232
   2.500   1.0595   0.00928   0.00453  -0.1778  0.6969  0.8946  -1.2894   0.0000   0.4127
   3.000   1.1004   0.00918   0.00447  -0.1744  0.6830  0.9229  -1.3463   0.0000   0.4027
   4.000   1.1954   0.00921   0.00452  -0.1713  0.6500  0.9957  -1.4742   0.0000   0.3860
   4.500   1.2470   0.00947   0.00472  -0.1708  0.6294  0.9957  -1.5523   0.0000   0.3790
   5.000   1.2940   0.00982   0.00501  -0.1695  0.6046  0.9957  -1.6272   0.0000   0.3722
   5.500   1.3355   0.01031   0.00538  -0.1670  0.5757  0.9957  -1.7004   0.0000   0.3656
   6.000   1.3711   0.01092   0.00588  -0.1634  0.5465  0.9957  -1.7817   0.0000   0.3589
   6.500   1.4034   0.01168   0.00653  -0.1594  0.5173  0.9957  -1.8645   0.0000   0.3525
   7.000   1.4314   0.01264   0.00738  -0.1548  0.4859  0.9957  -1.9443   0.0000   0.3463
   7.500   1.4572   0.01376   0.00841  -0.1501  0.4552  0.9957  -2.0350   0.0000   0.3404
   8.000   1.4821   0.01506   0.00964  -0.1456  0.4278  0.9957  -2.1283   0.0000   0.3348
   8.500   1.5056   0.01657   0.01107  -0.1413  0.4001  0.9957  -2.2235   0.0000   0.3295
   9.000   1.5261   0.01837   0.01279  -0.1369  0.3736  0.9957  -2.3361   0.0000   0.3245
   9.500   1.5492   0.02015   0.01455  -0.1331  0.3483  0.9957  -2.5588   0.0000   0.3198
  10.000   1.5702   0.02213   0.01650  -0.1293  0.3249  0.9957  -2.7895   0.0000   0.3153


