XFLR5 v6.06

 Calculated polar for: fab_d_f

 1 1 Reynolds number fixed          Mach number fixed         

 xtrf =   1.000 (top)        1.000 (bottom)
 Mach =   0.000     Re =     0.600 e 6     Ncrit =   9.000

  alpha     CL        CD       CDp       Cm    Top Xtr Bot Xtr   Cpmin    Chinge    XCp    
 ------- -------- --------- --------- -------- ------- ------- -------- --------- ---------
  -8.000  -0.1885   0.01253   0.00685  -0.1619  0.8868  0.0183  -5.4981   0.0000  -0.6387
  -7.500  -0.1339   0.01193   0.00613  -0.1622  0.8784  0.0207  -4.8315   0.0000  -0.9997
  -7.000  -0.0767   0.01140   0.00549  -0.1629  0.8713  0.0244  -4.1729   0.0000  -1.9357
  -6.500  -0.0223   0.01089   0.00493  -0.1631  0.8632  0.0293  -3.5633   0.0000  -7.2679
  -6.000   0.0352   0.01044   0.00439  -0.1637  0.8562  0.0357  -2.9709   0.0000   5.0126
  -5.500   0.0901   0.01006   0.00400  -0.1638  0.8488  0.0451  -2.5199   0.0000   2.1080
  -5.000   0.1477   0.00975   0.00364  -0.1644  0.8422  0.0565  -2.1705   0.0000   1.3843
  -4.500   0.2026   0.00944   0.00334  -0.1644  0.8342  0.0696  -1.8442   0.0000   1.0754
  -4.000   0.2603   0.00917   0.00308  -0.1650  0.8271  0.0906  -1.5452   0.0000   0.8933
  -3.500   0.3152   0.00885   0.00288  -0.1651  0.8197  0.1232  -1.2695   0.0000   0.7804
  -3.000   0.3730   0.00857   0.00267  -0.1657  0.8122  0.1650  -1.0148   0.0000   0.6988
  -2.500   0.4278   0.00829   0.00254  -0.1657  0.8038  0.2152  -0.7882   0.0000   0.6405
  -2.000   0.4852   0.00806   0.00244  -0.1662  0.7966  0.2815  -0.6926   0.0000   0.5946
  -1.500   0.5402   0.00776   0.00237  -0.1662  0.7871  0.3681  -0.7282   0.0000   0.5588
  -1.000   0.5963   0.00746   0.00237  -0.1665  0.7785  0.4821  -0.7656   0.0000   0.5295
  -0.500   0.6520   0.00715   0.00240  -0.1666  0.7690  0.6274  -0.8079   0.0000   0.5050
   0.000   0.7051   0.00702   0.00251  -0.1659  0.7583  0.7229  -0.8490   0.0000   0.4841
   0.500   0.7583   0.00701   0.00260  -0.1651  0.7476  0.7843  -0.8974   0.0000   0.4660
   1.000   0.8106   0.00703   0.00265  -0.1642  0.7351  0.8234  -0.9461   0.0000   0.4501
   1.500   0.8618   0.00706   0.00271  -0.1630  0.7223  0.8565  -1.0027   0.0000   0.4361
   2.000   0.9095   0.00706   0.00277  -0.1610  0.7060  0.8906  -1.0586   0.0000   0.4234
   2.500   0.9534   0.00705   0.00282  -0.1582  0.6889  0.9290  -1.1147   0.0000   0.4117
   3.000   1.0041   0.00707   0.00284  -0.1571  0.6697  0.9970  -1.1856   0.0000   0.4016
   3.500   1.0569   0.00732   0.00299  -0.1567  0.6442  0.9970  -1.2592   0.0000   0.3928
   4.000   1.1077   0.00763   0.00322  -0.1558  0.6168  0.9970  -1.3460   0.0000   0.3847
   4.500   1.1554   0.00805   0.00351  -0.1544  0.5825  0.9970  -1.4378   0.0000   0.3770
   5.000   1.2002   0.00858   0.00390  -0.1524  0.5438  0.9970  -1.5418   0.0000   0.3697
   5.500   1.2426   0.00921   0.00438  -0.1500  0.5050  0.9970  -1.6527   0.0000   0.3628
   6.000   1.2828   0.00992   0.00494  -0.1473  0.4618  0.9970  -1.7966   0.0000   0.3562
   6.500   1.3167   0.01080   0.00561  -0.1434  0.4106  0.9970  -2.0402   0.0000   0.3496
   7.000   1.3464   0.01190   0.00644  -0.1389  0.3554  0.9970  -2.3615   0.0000   0.3432
   7.500   1.3762   0.01303   0.00735  -0.1346  0.3064  0.9970  -2.8020   0.0000   0.3371
   8.000   1.4025   0.01437   0.00846  -0.1300  0.2582  0.9970  -3.2465   0.0000   0.3312
   8.500   1.4243   0.01602   0.00981  -0.1249  0.2031  0.9970  -3.6852   0.0000   0.3255
   9.000   1.4454   0.01781   0.01135  -0.1201  0.1570  0.9970  -4.1354   0.0000   0.3201
   9.500   1.4665   0.01968   0.01306  -0.1156  0.1206  0.9970  -4.6007   0.0000   0.3151
  10.000   1.4865   0.02173   0.01497  -0.1112  0.0909  0.9970  -5.0717   0.0000   0.3103


