XFLR5 v6.06

 Calculated polar for: fab_d_f

 1 1 Reynolds number fixed          Mach number fixed         

 xtrf =   1.000 (top)        1.000 (bottom)
 Mach =   0.000     Re =     0.300 e 6     Ncrit =   9.000

  alpha     CL        CD       CDp       Cm    Top Xtr Bot Xtr   Cpmin    Chinge    XCp    
 ------- -------- --------- --------- -------- ------- ------- -------- --------- ---------
  -8.000  -0.2175   0.02020   0.01424  -0.1563  0.9292  0.0294  -5.3403   0.0000  -0.4947
  -7.500  -0.1670   0.01858   0.01233  -0.1565  0.9201  0.0319  -4.7562   0.0000  -0.7187
  -7.000  -0.1020   0.01716   0.01073  -0.1592  0.9153  0.0358  -4.0862   0.0000  -1.3576
  -6.500  -0.0503   0.01622   0.00962  -0.1591  0.9065  0.0410  -3.5188   0.0000  -3.0019
  -6.000   0.0136   0.01547   0.00876  -0.1613  0.9010  0.0503  -2.8945   0.0000  12.4153
  -5.500   0.0650   0.01476   0.00800  -0.1609  0.8919  0.0610  -2.4834   0.0000   2.7819
  -5.000   0.1271   0.01389   0.00709  -0.1626  0.8864  0.0761  -2.1586   0.0000   1.5547
  -4.500   0.1785   0.01341   0.00661  -0.1621  0.8774  0.0932  -1.8640   0.0000   1.1744
  -4.000   0.2410   0.01276   0.00597  -0.1636  0.8714  0.1163  -1.5654   0.0000   0.9395
  -3.500   0.2928   0.01235   0.00566  -0.1631  0.8614  0.1478  -1.3073   0.0000   0.8147
  -3.000   0.3523   0.01190   0.00532  -0.1641  0.8548  0.1996  -1.0524   0.0000   0.7211
  -2.500   0.4067   0.01153   0.00515  -0.1642  0.8458  0.2671  -0.8274   0.0000   0.6573
  -2.000   0.4632   0.01114   0.00504  -0.1646  0.8369  0.3642  -0.6760   0.0000   0.6077
  -1.500   0.5214   0.01069   0.00496  -0.1653  0.8290  0.5030  -0.7131   0.0000   0.5683
  -1.000   0.5728   0.01039   0.00515  -0.1642  0.8189  0.6618  -0.7482   0.0000   0.5372
  -0.500   0.6260   0.01029   0.00520  -0.1630  0.8097  0.7625  -0.7892   0.0000   0.5102
   0.000   0.6754   0.01027   0.00524  -0.1610  0.7996  0.8258  -0.8281   0.0000   0.4875
   0.500   0.7194   0.01023   0.00525  -0.1579  0.7877  0.8733  -0.8706   0.0000   0.4678
   1.000   0.7599   0.01009   0.00514  -0.1540  0.7762  0.9223  -0.9118   0.0000   0.4503
   1.500   0.8180   0.00984   0.00486  -0.1540  0.7647  0.9970  -0.9704   0.0000   0.4354
   2.000   0.8780   0.00985   0.00478  -0.1551  0.7511  0.9970  -1.0331   0.0000   0.4231
   2.500   0.9355   0.00990   0.00477  -0.1556  0.7370  0.9970  -1.0973   0.0000   0.4122
   3.000   0.9888   0.00994   0.00480  -0.1551  0.7189  0.9970  -1.1692   0.0000   0.4021
   3.500   1.0422   0.01003   0.00486  -0.1546  0.7006  0.9970  -1.2429   0.0000   0.3930
   4.000   1.0955   0.01015   0.00492  -0.1540  0.6800  0.9970  -1.3305   0.0000   0.3847
   4.500   1.1439   0.01035   0.00510  -0.1525  0.6532  0.9970  -1.4217   0.0000   0.3768
   5.000   1.1916   0.01066   0.00537  -0.1509  0.6243  0.9970  -1.5270   0.0000   0.3694
   5.500   1.2354   0.01109   0.00572  -0.1485  0.5884  0.9970  -1.6383   0.0000   0.3624
   6.000   1.2765   0.01168   0.00621  -0.1458  0.5504  0.9970  -1.7787   0.0000   0.3556
   6.500   1.3137   0.01242   0.00683  -0.1424  0.5092  0.9970  -2.0185   0.0000   0.3491
   7.000   1.3466   0.01329   0.00759  -0.1382  0.4672  0.9970  -2.2869   0.0000   0.3427
   7.500   1.3740   0.01431   0.00848  -0.1333  0.4248  0.9970  -2.6858   0.0000   0.3363
   8.000   1.3983   0.01553   0.00958  -0.1280  0.3816  0.9970  -3.1130   0.0000   0.3301
   8.500   1.4197   0.01698   0.01089  -0.1227  0.3375  0.9970  -3.5447   0.0000   0.3242
   9.000   1.4378   0.01872   0.01248  -0.1172  0.2916  0.9970  -3.9750   0.0000   0.3186
   9.500   1.4548   0.02072   0.01433  -0.1121  0.2487  0.9970  -4.4150   0.0000   0.3133
  10.000   1.4716   0.02292   0.01641  -0.1074  0.2094  0.9970  -4.8673   0.0000   0.3084


