XFLR5 v6.06

 Calculated polar for: foilb

 1 1 Reynolds number fixed          Mach number fixed         

 xtrf =   1.000 (top)        1.000 (bottom)
 Mach =   0.000     Re =     0.200 e 6     Ncrit =   9.000

  alpha     CL        CD       CDp       Cm    Top Xtr Bot Xtr   Cpmin    Chinge    XCp    
 ------- -------- --------- --------- -------- ------- ------- -------- --------- ---------
  -8.000  -0.3990   0.09802   0.09482  -0.0287  1.0000  0.0350  -1.8168   0.0000   0.1709
  -7.500  -0.4196   0.09362   0.09054  -0.0261  1.0000  0.0361  -1.8908   0.0000   0.1814
  -7.000  -0.4299   0.08567   0.08268  -0.0327  0.9937  0.0372  -2.0902   0.0000   0.1679
  -6.500  -0.3948   0.07505   0.07204  -0.0477  0.9823  0.0394  -2.1128   0.0000   0.1232
  -6.000  -0.3527   0.02908   0.02330  -0.0895  0.9697  0.0117  -4.7251   0.0000  -0.0122
  -5.500  -0.2892   0.02402   0.01727  -0.0930  0.9628  0.0117  -4.5361   0.0000  -0.0810
  -5.000  -0.2168   0.02124   0.01407  -0.0972  0.9575  0.0129  -4.0898   0.0000  -0.2097
  -4.500  -0.1522   0.01933   0.01188  -0.0997  0.9490  0.0171  -3.6789   0.0000  -0.4192
  -4.000  -0.0742   0.01797   0.01044  -0.1047  0.9441  0.0440  -3.1546   0.0000  -1.1867
  -3.500  -0.0113   0.01718   0.00973  -0.1067  0.9340  0.0812  -2.5689   0.0000  -9.3578
  -3.000   0.0550   0.01651   0.00930  -0.1094  0.9250  0.1584  -1.9658   0.0000   2.2619
  -2.500   0.1322   0.01572   0.00890  -0.1142  0.9192  0.2771  -1.3445   0.0000   1.1215
  -2.000   0.1951   0.01505   0.00878  -0.1160  0.9087  0.4372  -1.0142   0.0000   0.8489
  -1.000   0.3333   0.01367   0.00824  -0.1202  0.8933  0.7284  -0.5148   0.0000   0.6117
  -0.500   0.3856   0.01311   0.00795  -0.1181  0.8823  0.8489  -0.5504   0.0000   0.5564
   0.000   0.4731   0.01222   0.00707  -0.1233  0.8783  1.0000  -0.6076   0.0000   0.5100
   0.500   0.5438   0.01190   0.00660  -0.1262  0.8661  1.0000  -0.6599   0.0000   0.4808
   1.000   0.6146   0.01157   0.00616  -0.1289  0.8532  1.0000  -0.7196   0.0000   0.4580
   1.500   0.6842   0.01125   0.00577  -0.1312  0.8387  1.0000  -0.7872   0.0000   0.4396
   2.000   0.7530   0.01097   0.00542  -0.1333  0.8223  1.0000  -0.8647   0.0000   0.4243
   2.500   0.8088   0.01093   0.00538  -0.1329  0.7990  1.0000  -0.9473   0.0000   0.4111
   3.000   0.8675   0.01088   0.00531  -0.1329  0.7744  1.0000  -1.0478   0.0000   0.3995
   3.500   0.9230   0.01093   0.00534  -0.1323  0.7456  1.0000  -1.1655   0.0000   0.3892
   4.000   0.9757   0.01107   0.00545  -0.1312  0.7120  1.0000  -1.3135   0.0000   0.3797
   4.500   1.0254   0.01132   0.00567  -0.1295  0.6728  1.0000  -1.5387   0.0000   0.3710
   5.000   1.0721   0.01171   0.00600  -0.1273  0.6276  1.0000  -1.8403   0.0000   0.3629
   6.000   1.1527   0.01299   0.00702  -0.1206  0.5116  1.0000  -2.4728   0.0000   0.3476
   6.500   1.1857   0.01398   0.00779  -0.1162  0.4412  1.0000  -2.9269   0.0000   0.3404
   7.000   1.2094   0.01536   0.00878  -0.1104  0.3527  1.0000  -3.4435   0.0000   0.3330
   7.500   1.2236   0.01719   0.01003  -0.1033  0.2515  1.0000  -3.9174   0.0000   0.3256
   8.000   1.2409   0.01920   0.01155  -0.0973  0.1678  1.0000  -4.4240   0.0000   0.3189
   8.500   1.2618   0.02126   0.01324  -0.0923  0.1068  1.0000  -4.9690   0.0000   0.3130
   9.000   1.2841   0.02333   0.01516  -0.0877  0.0675  1.0000  -5.5290   0.0000   0.3074
   9.500   1.3028   0.02575   0.01751  -0.0828  0.0428  1.0000  -6.0555   0.0000   0.3020
  10.000   1.3221   0.02815   0.01995  -0.0784  0.0308  1.0000  -6.6052   0.0000   0.2970


