XFLR5 v6.06

 Calculated polar for: foilb

 1 1 Reynolds number fixed          Mach number fixed         

 xtrf =   1.000 (top)        1.000 (bottom)
 Mach =   0.000     Re =     0.050 e 6     Ncrit =   9.000

  alpha     CL        CD       CDp       Cm    Top Xtr Bot Xtr   Cpmin    Chinge    XCp    
 ------- -------- --------- --------- -------- ------- ------- -------- --------- ---------
  -8.000  -0.3733   0.11042   0.10399  -0.0263  1.0000  0.2212  -1.6684   0.0000   0.1725
  -7.500  -0.3883   0.10656   0.10034  -0.0227  1.0000  0.2358  -1.7169   0.0000   0.1852
  -7.000  -0.4100   0.10325   0.09725  -0.0180  1.0000  0.2507  -1.7681   0.0000   0.2007
  -6.500  -0.4266   0.09882   0.09303  -0.0130  1.0000  0.2671  -1.8122   0.0000   0.2148
  -6.000  -0.4229   0.09293   0.08724  -0.0077  1.0000  0.2932  -1.8268   0.0000   0.2274
  -5.500  -0.4361   0.08816   0.08263  -0.0035  1.0000  0.3165  -1.8640   0.0000   0.2381
  -5.000  -0.4545   0.08405   0.07870  -0.0019  1.0000  0.3447  -1.9136   0.0000   0.2426
  -4.500  -0.4477   0.07813   0.07285   0.0047  1.0000  0.3806  -1.8817   0.0000   0.2574
  -4.000  -0.3130   0.04104   0.03284  -0.0651  1.0000  0.1373  -2.8344   0.0000   0.0372
  -3.500  -0.2495   0.03484   0.02539  -0.0690  1.0000  0.1483  -2.6731   0.0000  -0.0321
  -3.000  -0.1965   0.03137   0.02145  -0.0694  1.0000  0.1729  -2.4035   0.0000  -0.1099
  -2.500  -0.1463   0.02904   0.01899  -0.0690  1.0000  0.2361  -2.1237   0.0000  -0.2294
  -2.000  -0.1001   0.02752   0.01791  -0.0679  1.0000  0.3600  -1.7988   0.0000  -0.4376
  -1.500  -0.0582   0.02659   0.01765  -0.0650  1.0000  0.5295  -1.4560   0.0000  -0.8801
  -1.000  -0.0377   0.02582   0.01782  -0.0566  1.0000  0.7514  -1.2418   0.0000  -1.2684
  -0.500  -0.0000   0.02511   0.01679  -0.0558  1.0000  1.0000  -1.0613   0.0000  -8629.8261
   0.000   0.0486   0.02637   0.01730  -0.0576  1.0000  1.0000  -0.8572   0.0000   1.4411
   0.500   0.0916   0.02780   0.01821  -0.0583  1.0000  1.0000  -0.6681   0.0000   0.8870
   1.000   0.1319   0.02941   0.01943  -0.0587  1.0000  1.0000  -0.4977   0.0000   0.6937
   1.500   0.1701   0.03121   0.02095  -0.0590  1.0000  1.0000  -0.4324   0.0000   0.5943
   2.000   0.2534   0.03446   0.02392  -0.0677  0.9743  1.0000  -0.4863   0.0000   0.5140
   2.500   0.3403   0.03739   0.02667  -0.0762  0.9436  1.0000  -0.5496   0.0000   0.4704
   3.000   0.4086   0.03954   0.02876  -0.0811  0.9118  1.0000  -0.6078   0.0000   0.4446
   3.500   0.4828   0.04169   0.03094  -0.0864  0.8803  1.0000  -0.6789   0.0000   0.4246
   4.000   0.5544   0.04359   0.03292  -0.0906  0.8480  1.0000  -0.7600   0.0000   0.4088
   4.500   0.6182   0.04523   0.03477  -0.0933  0.8134  1.0000  -0.8471   0.0000   0.3957
   5.000   0.7005   0.04620   0.03602  -0.0973  0.7799  1.0000  -0.9733   0.0000   0.3833
   5.500   0.7593   0.04726   0.03739  -0.0978  0.7415  1.0000  -1.0966   0.0000   0.3728
   6.000   0.8357   0.04711   0.03766  -0.0990  0.7033  1.0000  -1.2784   0.0000   0.3620
   6.500   0.9506   0.04317   0.03443  -0.1012  0.6662  1.0000  -1.7432   0.0000   0.3494
   7.000   1.0879   0.03628   0.02839  -0.1036  0.6156  1.0000  -2.3784   0.0000   0.3376
   7.500   1.2009   0.03109   0.02357  -0.1035  0.5289  1.0000  -3.1104   0.0000   0.3278
   8.000   1.2435   0.03112   0.02323  -0.0973  0.4243  1.0000  -3.7486   0.0000   0.3190
   8.500   1.2633   0.03355   0.02494  -0.0897  0.3217  1.0000  -4.2260   0.0000   0.3111
   9.000   1.2742   0.03736   0.02823  -0.0823  0.2359  1.0000  -4.6038   0.0000   0.3039
   9.500   1.2937   0.04203   0.03231  -0.0770  0.1685  1.0000  -5.0085   0.0000   0.2982
  10.000   1.3325   0.04806   0.03838  -0.0746  0.1272  1.0000  -5.4605   0.0000   0.2939


