XFLR5 v6.06

 Calculated polar for: foilb

 1 1 Reynolds number fixed          Mach number fixed         

 xtrf =   1.000 (top)        1.000 (bottom)
 Mach =   0.000     Re =     0.250 e 6     Ncrit =   9.000

  alpha     CL        CD       CDp       Cm    Top Xtr Bot Xtr   Cpmin    Chinge    XCp    
 ------- -------- --------- --------- -------- ------- ------- -------- --------- ---------
  -8.000  -0.4050   0.09715   0.09429  -0.0274  1.0000  0.0270  -1.9011   0.0000   0.1753
  -7.500  -0.3979   0.08610   0.08330  -0.0396  0.9928  0.0284  -2.1890   0.0000   0.1433
  -7.000  -0.3752   0.07852   0.07573  -0.0479  0.9825  0.0292  -2.1331   0.0000   0.1154
  -6.000  -0.2977   0.02345   0.01742  -0.1003  0.9580  0.0091  -4.9097   0.0000  -0.0971
  -5.500  -0.2357   0.02011   0.01347  -0.1026  0.9513  0.0093  -4.5763   0.0000  -0.1970
  -5.000  -0.1646   0.01809   0.01113  -0.1064  0.9460  0.0104  -4.0480   0.0000  -0.4112
  -4.500  -0.0996   0.01673   0.00951  -0.1086  0.9385  0.0160  -3.5590   0.0000  -0.8617
  -4.000  -0.0264   0.01563   0.00843  -0.1126  0.9332  0.0414  -2.9562   0.0000  -4.0878
  -3.500   0.0373   0.01493   0.00783  -0.1145  0.9246  0.0835  -2.3556   0.0000   3.3604
  -3.000   0.1133   0.01406   0.00723  -0.1190  0.9198  0.1641  -1.7115   0.0000   1.3121
  -2.500   0.1775   0.01337   0.00690  -0.1211  0.9109  0.2713  -1.1883   0.0000   0.9383
  -2.000   0.2561   0.01245   0.00641  -0.1260  0.9068  0.4129  -0.8792   0.0000   0.7448
  -1.000   0.3981   0.01096   0.00583  -0.1314  0.8933  0.7094  -0.5501   0.0000   0.5807
  -0.500   0.4556   0.01049   0.00559  -0.1307  0.8823  0.8098  -0.5892   0.0000   0.5369
   0.000   0.5053   0.00998   0.00523  -0.1280  0.8701  0.9101  -0.6277   0.0000   0.5026
   0.500   0.5815   0.00954   0.00473  -0.1318  0.8582  1.0000  -0.6843   0.0000   0.4753
   1.000   0.6469   0.00939   0.00445  -0.1336  0.8427  1.0000  -0.7422   0.0000   0.4547
   1.500   0.7103   0.00928   0.00424  -0.1349  0.8251  1.0000  -0.8075   0.0000   0.4376
   2.000   0.7693   0.00927   0.00414  -0.1352  0.8044  1.0000  -0.8796   0.0000   0.4230
   2.500   0.8268   0.00930   0.00412  -0.1352  0.7807  1.0000  -0.9660   0.0000   0.4103
   3.000   0.8804   0.00942   0.00420  -0.1345  0.7531  1.0000  -1.0639   0.0000   0.3990
   3.500   0.9336   0.00961   0.00432  -0.1336  0.7225  1.0000  -1.1819   0.0000   0.3889
   4.000   0.9824   0.00987   0.00455  -0.1319  0.6855  1.0000  -1.3280   0.0000   0.3795
   4.500   1.0300   0.01024   0.00484  -0.1300  0.6446  1.0000  -1.5613   0.0000   0.3709
   5.000   1.0747   0.01072   0.00522  -0.1275  0.5969  1.0000  -1.8581   0.0000   0.3628
   5.500   1.1155   0.01135   0.00571  -0.1244  0.5402  1.0000  -2.1653   0.0000   0.3550
   6.000   1.1493   0.01227   0.00633  -0.1200  0.4655  1.0000  -2.4766   0.0000   0.3474
   6.500   1.1751   0.01358   0.00718  -0.1145  0.3691  1.0000  -2.8941   0.0000   0.3398
   7.000   1.1968   0.01519   0.00826  -0.1086  0.2705  1.0000  -3.3895   0.0000   0.3325
   7.500   1.2149   0.01715   0.00961  -0.1026  0.1713  1.0000  -3.8803   0.0000   0.3256
   8.000   1.2416   0.01881   0.01099  -0.0982  0.1161  1.0000  -4.4441   0.0000   0.3196
   8.500   1.2691   0.02046   0.01251  -0.0940  0.0786  1.0000  -5.0288   0.0000   0.3139
   9.000   1.2927   0.02241   0.01428  -0.0895  0.0451  1.0000  -5.5987   0.0000   0.3084
   9.500   1.3165   0.02437   0.01625  -0.0853  0.0289  1.0000  -6.1761   0.0000   0.3032
  10.000   1.3401   0.02639   0.01838  -0.0812  0.0224  1.0000  -6.7571   0.0000   0.2982


