XFLR5 v6.06

 Calculated polar for: foila

 1 1 Reynolds number fixed          Mach number fixed         

 xtrf =   1.000 (top)        1.000 (bottom)
 Mach =   0.000     Re =     0.300 e 6     Ncrit =   9.000

  alpha     CL        CD       CDp       Cm    Top Xtr Bot Xtr   Cpmin    Chinge    XCp    
 ------- -------- --------- --------- -------- ------- ------- -------- --------- ---------
  -8.000  -0.0508   0.02705   0.02148  -0.1828  0.8293  0.0461  -3.5611   0.0000  -3.5126
  -7.500  -0.0015   0.02420   0.01811  -0.1842  0.8252  0.0485  -3.3337   0.0000  -124.9863
  -7.000   0.0449   0.02219   0.01552  -0.1842  0.8201  0.0513  -3.1319   0.0000   4.5188
  -6.500   0.0955   0.02105   0.01431  -0.1841  0.8149  0.0546  -2.8602   0.0000   2.2487
  -6.000   0.1507   0.01984   0.01292  -0.1846  0.8114  0.0585  -2.6107   0.0000   1.5166
  -5.500   0.2023   0.01911   0.01207  -0.1844  0.8071  0.0637  -2.3664   0.0000   1.1900
  -5.000   0.2529   0.01845   0.01131  -0.1838  0.8007  0.0703  -2.1400   0.0000   0.9977
  -4.500   0.3108   0.01768   0.01057  -0.1845  0.7966  0.0787  -1.8965   0.0000   0.8588
  -4.000   0.3617   0.01741   0.01027  -0.1839  0.7910  0.0891  -1.6777   0.0000   0.7700
  -3.500   0.4149   0.01704   0.00996  -0.1838  0.7852  0.1017  -1.4672   0.0000   0.7018
  -3.000   0.4750   0.01654   0.00947  -0.1848  0.7814  0.1199  -1.2499   0.0000   0.6454
  -2.500   0.5248   0.01644   0.00950  -0.1841  0.7745  0.1444  -1.0682   0.0000   0.6054
  -2.000   0.5832   0.01599   0.00913  -0.1847  0.7689  0.1822  -0.8985   0.0000   0.5698
  -1.500   0.6472   0.01545   0.00870  -0.1863  0.7653  0.2339  -0.9421   0.0000   0.5396
  -1.000   0.6947   0.01533   0.00888  -0.1853  0.7565  0.3070  -0.9763   0.0000   0.5174
  -0.500   0.7576   0.01436   0.00854  -0.1869  0.7519  0.5162  -1.0258   0.0000   0.4964
   0.000   0.8013   0.01428   0.00908  -0.1842  0.7438  0.7486  -1.0662   0.0000   0.4785
   0.500   0.8574   0.01401   0.00877  -0.1833  0.7377  0.8056  -1.1154   0.0000   0.4616
   1.000   0.9025   0.01405   0.00885  -0.1807  0.7291  0.8438  -1.1606   0.0000   0.4472
   1.500   0.9542   0.01367   0.00844  -0.1791  0.7227  0.8747  -1.2159   0.0000   0.4338
   2.000   0.9968   0.01346   0.00827  -0.1761  0.7129  0.9046  -1.2650   0.0000   0.4219
   2.500   1.0511   0.01281   0.00754  -0.1751  0.7059  0.9342  -1.3261   0.0000   0.4110
   3.000   1.1056   0.01261   0.00741  -0.1750  0.6946  0.9995  -1.3941   0.0000   0.4020
   3.500   1.1634   0.01255   0.00731  -0.1758  0.6825  0.9995  -1.4655   0.0000   0.3940
   4.000   1.2200   0.01246   0.00718  -0.1763  0.6687  0.9995  -1.5369   0.0000   0.3866
   4.500   1.2739   0.01249   0.00717  -0.1762  0.6535  0.9995  -1.6067   0.0000   0.3797
   5.000   1.3256   0.01261   0.00723  -0.1758  0.6363  0.9995  -1.6848   0.0000   0.3731
   5.500   1.3746   0.01284   0.00738  -0.1748  0.6166  0.9995  -1.7649   0.0000   0.3669
   6.000   1.4139   0.01328   0.00778  -0.1721  0.5923  0.9995  -1.8367   0.0000   0.3606
   6.500   1.4495   0.01388   0.00827  -0.1687  0.5663  0.9995  -1.9056   0.0000   0.3544
   7.000   1.4796   0.01474   0.00902  -0.1645  0.5384  0.9995  -1.9821   0.0000   0.3484
   7.500   1.5062   0.01584   0.00999  -0.1601  0.5116  0.9995  -2.0590   0.0000   0.3426
   8.000   1.5296   0.01719   0.01129  -0.1555  0.4855  0.9995  -2.1355   0.0000   0.3371
   8.500   1.5498   0.01882   0.01285  -0.1508  0.4589  0.9995  -2.2091   0.0000   0.3319
   9.000   1.5678   0.02071   0.01465  -0.1461  0.4328  0.9995  -2.2922   0.0000   0.3268
   9.500   1.5858   0.02274   0.01664  -0.1418  0.4083  0.9995  -2.3783   0.0000   0.3221
  10.000   1.6040   0.02486   0.01872  -0.1377  0.3862  0.9995  -2.4666   0.0000   0.3176


