XFLR5 v6.06

 Calculated polar for: foila

 1 1 Reynolds number fixed          Mach number fixed         

 xtrf =   1.000 (top)        1.000 (bottom)
 Mach =   0.000     Re =     0.450 e 6     Ncrit =   9.000

  alpha     CL        CD       CDp       Cm    Top Xtr Bot Xtr   Cpmin    Chinge    XCp    
 ------- -------- --------- --------- -------- ------- ------- -------- --------- ---------
  -8.000  -0.0456   0.01867   0.01245  -0.1854  0.8067  0.0396  -3.8408   0.0000  -3.9945
  -7.500   0.0067   0.01769   0.01145  -0.1855  0.8020  0.0418  -3.5172   0.0000  29.2119
  -7.000   0.0612   0.01658   0.01018  -0.1860  0.7982  0.0442  -3.2148   0.0000   3.4083
  -6.500   0.1181   0.01582   0.00924  -0.1867  0.7949  0.0476  -2.9275   0.0000   1.8884
  -6.000   0.1707   0.01520   0.00856  -0.1866  0.7908  0.0513  -2.6554   0.0000   1.3794
  -5.500   0.2249   0.01453   0.00791  -0.1867  0.7863  0.0562  -2.3817   0.0000   1.1055
  -5.000   0.2819   0.01392   0.00728  -0.1873  0.7823  0.0626  -2.1251   0.0000   0.9325
  -4.500   0.3386   0.01350   0.00683  -0.1878  0.7784  0.0711  -1.8758   0.0000   0.8181
  -4.000   0.3921   0.01315   0.00653  -0.1876  0.7732  0.0805  -1.6447   0.0000   0.7388
  -3.500   0.4495   0.01275   0.00614  -0.1881  0.7687  0.0923  -1.4191   0.0000   0.6762
  -3.000   0.5096   0.01243   0.00580  -0.1892  0.7651  0.1101  -1.2023   0.0000   0.6268
  -2.500   0.5615   0.01220   0.00572  -0.1886  0.7589  0.1366  -1.0135   0.0000   0.5900
  -2.000   0.6194   0.01181   0.00542  -0.1892  0.7536  0.1713  -0.9267   0.0000   0.5581
  -1.500   0.6778   0.01156   0.00526  -0.1899  0.7488  0.2143  -0.9670   0.0000   0.5316
  -1.000   0.7310   0.01132   0.00524  -0.1897  0.7423  0.2765  -1.0053   0.0000   0.5098
  -0.500   0.7906   0.01078   0.00499  -0.1907  0.7368  0.4025  -1.0527   0.0000   0.4906
   0.000   0.8403   0.01019   0.00522  -0.1897  0.7294  0.6799  -1.0972   0.0000   0.4742
   0.500   0.8952   0.01011   0.00521  -0.1892  0.7230  0.7635  -1.1453   0.0000   0.4589
   1.000   0.9466   0.01014   0.00527  -0.1880  0.7152  0.8008  -1.1958   0.0000   0.4454
   1.500   1.0005   0.01002   0.00513  -0.1873  0.7073  0.8276  -1.2527   0.0000   0.4331
   2.000   1.0492   0.01002   0.00518  -0.1857  0.6976  0.8517  -1.3061   0.0000   0.4221
   2.500   1.1007   0.00997   0.00511  -0.1847  0.6884  0.8709  -1.3678   0.0000   0.4121
   3.000   1.1499   0.00988   0.00500  -0.1832  0.6762  0.8898  -1.4331   0.0000   0.4029
   3.500   1.1945   0.00982   0.00499  -0.1808  0.6624  0.9121  -1.4952   0.0000   0.3942
   4.000   1.2378   0.00978   0.00499  -0.1783  0.6475  0.9421  -1.5568   0.0000   0.3861
   4.500   1.2923   0.00992   0.00514  -0.1785  0.6292  0.9995  -1.6270   0.0000   0.3794
   5.000   1.3415   0.01026   0.00542  -0.1778  0.6073  0.9995  -1.7041   0.0000   0.3730
   5.500   1.3859   0.01073   0.00579  -0.1761  0.5825  0.9995  -1.7801   0.0000   0.3667
   6.000   1.4227   0.01137   0.00630  -0.1730  0.5561  0.9995  -1.8498   0.0000   0.3604
   6.500   1.4543   0.01222   0.00702  -0.1691  0.5268  0.9995  -1.9151   0.0000   0.3543
   7.000   1.4817   0.01327   0.00797  -0.1647  0.5002  0.9995  -1.9887   0.0000   0.3483
   7.500   1.5084   0.01447   0.00911  -0.1605  0.4746  0.9995  -2.0655   0.0000   0.3427
   8.000   1.5299   0.01605   0.01059  -0.1559  0.4476  0.9995  -2.1400   0.0000   0.3373
   8.500   1.5495   0.01791   0.01234  -0.1514  0.4215  0.9995  -2.2126   0.0000   0.3322
   9.000   1.5720   0.01975   0.01415  -0.1476  0.3968  0.9995  -2.3018   0.0000   0.3275
   9.500   1.5900   0.02191   0.01623  -0.1434  0.3754  0.9995  -2.3887   0.0000   0.3228
  10.000   1.6119   0.02391   0.01824  -0.1399  0.3544  0.9995  -2.4824   0.0000   0.3184


