XFLR5 v6.06

 Calculated polar for: foila

 1 1 Reynolds number fixed          Mach number fixed         

 xtrf =   1.000 (top)        1.000 (bottom)
 Mach =   0.000     Re =     0.050 e 6     Ncrit =   9.000

  alpha     CL        CD       CDp       Cm    Top Xtr Bot Xtr   Cpmin    Chinge    XCp    
 ------- -------- --------- --------- -------- ------- ------- -------- --------- ---------
  -8.000  -0.3761   0.15136   0.14595  -0.0150  1.0005  0.1944  -1.4380   0.0000   0.1964
  -7.500  -0.3646   0.14513   0.13976  -0.0124  1.0005  0.2043  -1.3746   0.0000   0.2028
  -7.000  -0.3736   0.14057   0.13529  -0.0103  1.0005  0.2125  -1.3752   0.0000   0.2101
  -6.500  -0.4207   0.13899   0.13386  -0.0083  1.0005  0.2205  -1.4807   0.0000   0.2200
  -6.000  -0.4229   0.13385   0.12879  -0.0052  1.0005  0.2332  -1.4442   0.0000   0.2282
  -5.500  -0.4277   0.12887   0.12388  -0.0019  1.0005  0.2454  -1.4130   0.0000   0.2369
  -5.000  -0.4404   0.12421   0.11931   0.0018  1.0005  0.2561  -1.4090   0.0000   0.2461
  -4.500  -0.4554   0.11952   0.11472   0.0041  1.0005  0.2698  -1.4161   0.0000   0.2519
  -4.000  -0.4784   0.11456   0.10986  -0.0003  1.0005  0.2899  -1.4780   0.0000   0.2431
  -3.500  -0.4685   0.10907   0.10441   0.0058  1.0005  0.3093  -1.3995   0.0000   0.2564
  -3.000  -0.4666   0.10360   0.09900   0.0055  1.0005  0.3368  -1.3827   0.0000   0.2562
  -2.500  -0.4592   0.09879   0.09424   0.0078  1.0005  0.3714  -1.3367   0.0000   0.2617
  -2.000  -0.4526   0.08913   0.08436   0.0079  1.0005  0.4307  -1.3553   0.0000   0.2619
  -1.500  -0.1749   0.06052   0.05265  -0.0833  1.0005  0.1931  -1.6866   0.0000  -0.2410
  -1.000  -0.1117   0.05827   0.04976  -0.0895  1.0005  0.2029  -1.5961   0.0000  -0.5712
  -0.500  -0.0483   0.05752   0.04818  -0.0949  1.0005  0.2205  -1.4954   0.0000  -1.7567
   0.000   0.0077   0.05811   0.04851  -0.0984  0.9990  0.2453  -1.3676   0.0000  13.1740
   0.500   0.0884   0.06055   0.05069  -0.1060  0.9898  0.2912  -1.1995   0.0000   1.4625
   1.000   0.1650   0.06338   0.05366  -0.1126  0.9756  0.3730  -1.0321   0.0000   0.9367
   1.500   0.2265   0.06495   0.05732  -0.1141  0.9629  0.7267  -0.8913   0.0000   0.7548
   2.000   0.2612   0.06663   0.05842  -0.1124  0.9320  0.9995  -0.7819   0.0000   0.6796
   2.500   0.3228   0.07139   0.06257  -0.1173  0.9091  0.9995  -0.6421   0.0000   0.6107
   3.000   0.3726   0.07532   0.06613  -0.1200  0.8834  0.9995  -0.6752   0.0000   0.5682
   3.500   0.4072   0.07870   0.06926  -0.1204  0.8586  0.9995  -0.6999   0.0000   0.5408
   4.000   0.4571   0.08349   0.07381  -0.1232  0.8372  0.9995  -0.7376   0.0000   0.5137
   4.500   0.4959   0.08726   0.07742  -0.1240  0.8113  0.9995  -0.7670   0.0000   0.4935
   5.000   0.5255   0.09140   0.08146  -0.1242  0.7915  0.9995  -0.7859   0.0000   0.4788
   5.500   0.5582   0.09543   0.08541  -0.1246  0.7691  0.9995  -0.8077   0.0000   0.4650
   6.000   0.6066   0.10092   0.09081  -0.1271  0.7500  0.9995  -0.8510   0.0000   0.4506
   6.500   0.6157   0.10442   0.09432  -0.1252  0.7308  0.9995  -0.8579   0.0000   0.4436
   7.000   0.6507   0.10893   0.09882  -0.1261  0.7088  0.9995  -0.8899   0.0000   0.4332
   7.500   0.6910   0.11445   0.10434  -0.1277  0.6910  0.9995  -0.9254   0.0000   0.4236
   8.000   0.7101   0.11930   0.10923  -0.1277  0.6760  0.9995  -0.9392   0.0000   0.4178
   8.500   0.7301   0.12428   0.11426  -0.1279  0.6610  0.9995  -0.9564   0.0000   0.4124
   9.000   0.7458   0.12897   0.11901  -0.1278  0.6451  0.9995  -0.9732   0.0000   0.4079
   9.500   0.7626   0.13362   0.12373  -0.1279  0.6281  0.9995  -0.9923   0.0000   0.4035
  10.000   0.7829   0.13847   0.12866  -0.1285  0.6111  0.9995  -1.0147   0.0000   0.3991


