XFLR5 v6.06

 Calculated polar for: foilb

 1 1 Reynolds number fixed          Mach number fixed         

 xtrf =   1.000 (top)        1.000 (bottom)
 Mach =   0.000     Re =     0.550 e 6     Ncrit =   9.000

  alpha     CL        CD       CDp       Cm    Top Xtr Bot Xtr   Cpmin    Chinge    XCp    
 ------- -------- --------- --------- -------- ------- ------- -------- --------- ---------
  -7.500  -0.3268   0.03273   0.02983  -0.1140  0.9595  0.0074  -5.0963   0.0000  -0.1103
  -6.500  -0.2212   0.01498   0.00952  -0.1243  0.9473  0.0048  -5.6416   0.0000  -0.3270
  -6.000  -0.1503   0.01321   0.00749  -0.1282  0.9453  0.0047  -4.9292   0.0000  -0.6218
  -5.500  -0.0795   0.01192   0.00600  -0.1317  0.9430  0.0047  -4.2119   0.0000  -1.4377
  -5.000  -0.0191   0.01105   0.00497  -0.1327  0.9360  0.0049  -3.5671   0.0000  -6.8036
  -4.500   0.0538   0.01025   0.00407  -0.1364  0.9331  0.0060  -2.8818   0.0000   2.8225
  -4.000   0.1170   0.00964   0.00347  -0.1380  0.9260  0.0184  -2.2794   0.0000   1.4438
  -3.500   0.1857   0.00894   0.00288  -0.1408  0.9199  0.0522  -1.6805   0.0000   1.0165
  -3.000   0.2462   0.00841   0.00251  -0.1420  0.9098  0.1013  -1.1620   0.0000   0.8317
  -2.500   0.3074   0.00779   0.00223  -0.1435  0.8992  0.2049  -0.8903   0.0000   0.7198
  -2.000   0.3675   0.00739   0.00203  -0.1445  0.8874  0.2851  -0.6479   0.0000   0.6451
  -1.500   0.4254   0.00701   0.00192  -0.1451  0.8738  0.3930  -0.5600   0.0000   0.5920
  -1.000   0.4811   0.00649   0.00197  -0.1452  0.8585  0.5877  -0.5956   0.0000   0.5522
  -0.500   0.5360   0.00632   0.00197  -0.1448  0.8416  0.6710  -0.6342   0.0000   0.5199
   0.000   0.5901   0.00621   0.00200  -0.1442  0.8239  0.7494  -0.6763   0.0000   0.4935
   0.500   0.6410   0.00615   0.00206  -0.1427  0.8042  0.8210  -0.7215   0.0000   0.4713
   1.000   0.6871   0.00612   0.00212  -0.1401  0.7823  0.8890  -0.7707   0.0000   0.4521
   1.500   0.7357   0.00604   0.00207  -0.1380  0.7583  0.9892  -0.8287   0.0000   0.4353
   2.000   0.7899   0.00623   0.00215  -0.1377  0.7318  1.0000  -0.8997   0.0000   0.4215
   2.500   0.8421   0.00647   0.00227  -0.1370  0.7022  1.0000  -0.9842   0.0000   0.4093
   3.000   0.8926   0.00678   0.00245  -0.1358  0.6681  1.0000  -1.0813   0.0000   0.3984
   3.500   0.9415   0.00713   0.00268  -0.1344  0.6294  1.0000  -1.1990   0.0000   0.3884
   4.000   0.9856   0.00766   0.00297  -0.1320  0.5711  1.0000  -1.3420   0.0000   0.3791
   4.500   1.0216   0.00859   0.00342  -0.1281  0.4729  1.0000  -1.5588   0.0000   0.3700
   5.000   1.0609   0.00953   0.00398  -0.1251  0.3915  1.0000  -1.8392   0.0000   0.3620
   5.500   1.0921   0.01107   0.00481  -0.1210  0.2622  1.0000  -2.1176   0.0000   0.3543
   6.000   1.1285   0.01236   0.00565  -0.1178  0.1792  1.0000  -2.4338   0.0000   0.3473
   6.500   1.1645   0.01362   0.00655  -0.1146  0.1149  1.0000  -2.8335   0.0000   0.3408
   7.000   1.1942   0.01511   0.00764  -0.1103  0.0529  1.0000  -3.3565   0.0000   0.3341
   7.500   1.2278   0.01627   0.00866  -0.1066  0.0269  1.0000  -3.9278   0.0000   0.3280
   8.000   1.2614   0.01743   0.00978  -0.1030  0.0127  1.0000  -4.5226   0.0000   0.3222
   8.500   1.2950   0.01856   0.01094  -0.0995  0.0075  1.0000  -5.1530   0.0000   0.3167
   9.000   1.3282   0.01970   0.01215  -0.0961  0.0027  1.0000  -5.8018   0.0000   0.3114
   9.500   1.3569   0.02117   0.01372  -0.0921  0.0013  1.0000  -6.4442   0.0000   0.3062
  10.000   1.3851   0.02268   0.01538  -0.0882  0.0011  1.0000  -7.1097   0.0000   0.3013


