XFLR5 v6.06

 Calculated polar for: foilb

 1 1 Reynolds number fixed          Mach number fixed         

 xtrf =   1.000 (top)        1.000 (bottom)
 Mach =   0.000     Re =     0.350 e 6     Ncrit =   9.000

  alpha     CL        CD       CDp       Cm    Top Xtr Bot Xtr   Cpmin    Chinge    XCp    
 ------- -------- --------- --------- -------- ------- ------- -------- --------- ---------
  -7.500  -0.3933   0.03862   0.03537  -0.0970  0.9687  0.0080  -5.4140   0.0000  -0.0064
  -7.000  -0.3519   0.02862   0.02443  -0.1054  0.9585  0.0075  -5.4229   0.0000  -0.0597
  -6.500  -0.2968   0.01995   0.01422  -0.1096  0.9521  0.0065  -5.7112   0.0000  -0.1308
  -6.000  -0.2310   0.01732   0.01117  -0.1128  0.9472  0.0064  -5.1712   0.0000  -0.2510
  -5.500  -0.1578   0.01555   0.00912  -0.1170  0.9445  0.0067  -4.4951   0.0000  -0.5083
  -5.000  -0.0989   0.01447   0.00782  -0.1179  0.9362  0.0075  -3.8966   0.0000  -0.9658
  -4.500  -0.0249   0.01342   0.00666  -0.1218  0.9330  0.0142  -3.2575   0.0000  -4.7164
  -4.000   0.0393   0.01264   0.00590  -0.1237  0.9262  0.0335  -2.6527   0.0000   3.4388
  -3.500   0.1119   0.01180   0.00519  -0.1274  0.9219  0.0774  -2.0139   0.0000   1.4019
  -3.000   0.1912   0.01091   0.00456  -0.1325  0.9195  0.1523  -1.3782   0.0000   0.9497
  -2.500   0.2547   0.01018   0.00420  -0.1344  0.9109  0.2607  -1.0091   0.0000   0.7817
  -2.000   0.3300   0.00946   0.00374  -0.1386  0.9061  0.3639  -0.7241   0.0000   0.6723
  -1.500   0.3907   0.00871   0.00366  -0.1398  0.8953  0.5636  -0.5416   0.0000   0.6090
  -1.000   0.4524   0.00830   0.00350  -0.1407  0.8840  0.6636  -0.5797   0.0000   0.5614
  -0.500   0.5108   0.00799   0.00339  -0.1407  0.8708  0.7528  -0.6199   0.0000   0.5252
   0.000   0.5637   0.00775   0.00331  -0.1393  0.8553  0.8331  -0.6609   0.0000   0.4963
   0.500   0.6093   0.00754   0.00318  -0.1361  0.8383  0.9122  -0.7024   0.0000   0.4721
   1.000   0.6717   0.00738   0.00298  -0.1371  0.8203  1.0000  -0.7601   0.0000   0.4523
   1.500   0.7275   0.00747   0.00295  -0.1370  0.7983  1.0000  -0.8215   0.0000   0.4361
   2.000   0.7829   0.00759   0.00299  -0.1369  0.7746  1.0000  -0.8925   0.0000   0.4220
   2.500   0.8367   0.00776   0.00306  -0.1363  0.7482  1.0000  -0.9775   0.0000   0.4096
   3.000   0.8886   0.00798   0.00321  -0.1354  0.7182  1.0000  -1.0750   0.0000   0.3986
   3.500   0.9386   0.00827   0.00341  -0.1340  0.6838  1.0000  -1.1921   0.0000   0.3885
   4.000   0.9868   0.00863   0.00366  -0.1323  0.6450  1.0000  -1.3394   0.0000   0.3793
   4.500   1.0327   0.00908   0.00400  -0.1302  0.6004  1.0000  -1.5795   0.0000   0.3708
   5.000   1.0717   0.00977   0.00442  -0.1268  0.5324  1.0000  -1.8613   0.0000   0.3624
   5.500   1.1026   0.01086   0.00501  -0.1220  0.4347  1.0000  -2.1398   0.0000   0.3542
   6.000   1.1356   0.01201   0.00578  -0.1179  0.3493  1.0000  -2.4468   0.0000   0.3468
   6.500   1.1617   0.01368   0.00681  -0.1129  0.2363  1.0000  -2.8293   0.0000   0.3396
   7.000   1.1901   0.01520   0.00789  -0.1085  0.1575  1.0000  -3.3537   0.0000   0.3329
   7.500   1.2206   0.01661   0.00903  -0.1044  0.1052  1.0000  -3.9148   0.0000   0.3267
   8.000   1.2487   0.01819   0.01035  -0.1002  0.0594  1.0000  -4.4804   0.0000   0.3207
   8.500   1.2784   0.01965   0.01171  -0.0963  0.0355  1.0000  -5.0745   0.0000   0.3151
   9.000   1.3076   0.02114   0.01320  -0.0924  0.0216  1.0000  -5.6802   0.0000   0.3098
   9.500   1.3348   0.02277   0.01487  -0.0884  0.0140  1.0000  -6.2888   0.0000   0.3046
  10.000   1.3616   0.02445   0.01668  -0.0846  0.0099  1.0000  -6.9019   0.0000   0.2998


