XFLR5 v6.06

 Calculated polar for: foila

 1 1 Reynolds number fixed          Mach number fixed         

 xtrf =   1.000 (top)        1.000 (bottom)
 Mach =   0.000     Re =     0.350 e 6     Ncrit =   9.000

  alpha     CL        CD       CDp       Cm    Top Xtr Bot Xtr   Cpmin    Chinge    XCp    
 ------- -------- --------- --------- -------- ------- ------- -------- --------- ---------
  -8.000  -0.0498   0.02256   0.01643  -0.1845  0.8204  0.0434  -3.7219   0.0000  -3.6227
  -7.500   0.0008   0.02127   0.01506  -0.1847  0.8154  0.0456  -3.4232   0.0000  228.4316
  -7.000   0.0545   0.01964   0.01310  -0.1853  0.8116  0.0483  -3.1547   0.0000   3.7861
  -6.500   0.1077   0.01862   0.01185  -0.1855  0.8077  0.0518  -2.8897   0.0000   2.0358
  -6.000   0.1586   0.01785   0.01095  -0.1852  0.8027  0.0556  -2.6388   0.0000   1.4572
  -5.500   0.2131   0.01703   0.01012  -0.1854  0.7986  0.0608  -2.3732   0.0000   1.1471
  -5.000   0.2711   0.01632   0.00937  -0.1862  0.7950  0.0674  -2.1191   0.0000   0.9558
  -4.500   0.3208   0.01594   0.00900  -0.1854  0.7888  0.0757  -1.8934   0.0000   0.8425
  -4.000   0.3768   0.01545   0.00855  -0.1858  0.7840  0.0858  -1.6585   0.0000   0.7539
  -3.500   0.4365   0.01499   0.00806  -0.1867  0.7805  0.0987  -1.4329   0.0000   0.6858
  -3.000   0.4865   0.01480   0.00798  -0.1860  0.7741  0.1154  -1.2354   0.0000   0.6384
  -2.000   0.6065   0.01400   0.00728  -0.1878  0.7651  0.1811  -0.9157   0.0000   0.5626
  -1.500   0.6557   0.01383   0.00733  -0.1870  0.7573  0.2247  -0.9499   0.0000   0.5368
  -1.000   0.7164   0.01334   0.00701  -0.1881  0.7525  0.3023  -0.9930   0.0000   0.5130
  -0.500   0.7704   0.01286   0.00706  -0.1883  0.7460  0.4654  -1.0364   0.0000   0.4939
   0.000   0.8216   0.01232   0.00722  -0.1870  0.7391  0.7301  -1.0822   0.0000   0.4762
   0.500   0.8754   0.01229   0.00718  -0.1861  0.7325  0.7897  -1.1295   0.0000   0.4602
   1.000   0.9250   0.01223   0.00716  -0.1844  0.7247  0.8257  -1.1783   0.0000   0.4462
   1.500   0.9765   0.01210   0.00700  -0.1831  0.7172  0.8559  -1.2333   0.0000   0.4335
   2.000   1.0262   0.01181   0.00671  -0.1814  0.7083  0.8817  -1.2877   0.0000   0.4219
   2.500   1.0715   0.01168   0.00662  -0.1791  0.6984  0.9049  -1.3431   0.0000   0.4115
   3.000   1.1192   0.01138   0.00632  -0.1771  0.6890  0.9331  -1.4070   0.0000   0.4019
   3.500   1.1777   0.01106   0.00599  -0.1776  0.6766  0.9995  -1.4796   0.0000   0.3937
   4.000   1.2328   0.01112   0.00601  -0.1780  0.6620  0.9995  -1.5497   0.0000   0.3864
   4.500   1.2850   0.01128   0.00616  -0.1777  0.6457  0.9995  -1.6181   0.0000   0.3796
   5.000   1.3337   0.01155   0.00640  -0.1768  0.6262  0.9995  -1.6942   0.0000   0.3731
   5.500   1.3800   0.01189   0.00666  -0.1754  0.6043  0.9995  -1.7720   0.0000   0.3668
   6.000   1.4187   0.01239   0.00708  -0.1726  0.5791  0.9995  -1.8433   0.0000   0.3605
   6.500   1.4530   0.01311   0.00768  -0.1690  0.5520  0.9995  -1.9110   0.0000   0.3544
   7.000   1.4809   0.01406   0.00852  -0.1646  0.5237  0.9995  -1.9854   0.0000   0.3483
   7.500   1.5062   0.01527   0.00959  -0.1600  0.4977  0.9995  -2.0608   0.0000   0.3426
   8.000   1.5295   0.01667   0.01096  -0.1556  0.4714  0.9995  -2.1372   0.0000   0.3372
   8.500   1.5488   0.01841   0.01261  -0.1509  0.4445  0.9995  -2.2096   0.0000   0.3319
   9.000   1.5671   0.02037   0.01449  -0.1464  0.4192  0.9995  -2.2932   0.0000   0.3270
   9.500   1.5866   0.02239   0.01648  -0.1423  0.3953  0.9995  -2.3814   0.0000   0.3223
  10.000   1.6040   0.02460   0.01862  -0.1382  0.3743  0.9995  -2.4686   0.0000   0.3178


