XFLR5 v6.06

 Calculated polar for: foilb

 1 1 Reynolds number fixed          Mach number fixed         

 xtrf =   1.000 (top)        1.000 (bottom)
 Mach =   0.000     Re =     0.450 e 6     Ncrit =   9.000

  alpha     CL        CD       CDp       Cm    Top Xtr Bot Xtr   Cpmin    Chinge    XCp    
 ------- -------- --------- --------- -------- ------- ------- -------- --------- ---------
  -7.500  -0.3673   0.02889   0.02523  -0.1103  0.9594  0.0066  -5.9510   0.0000  -0.0611
  -7.000  -0.3122   0.02044   0.01547  -0.1160  0.9541  0.0058  -6.0606   0.0000  -0.1332
  -6.500  -0.2533   0.01680   0.01121  -0.1182  0.9480  0.0055  -5.6825   0.0000  -0.2295
  -6.000  -0.1829   0.01468   0.00875  -0.1220  0.9454  0.0054  -5.0474   0.0000  -0.4331
  -5.000  -0.0523   0.01239   0.00604  -0.1264  0.9352  0.0059  -3.7153   0.0000  -2.2089
  -4.500   0.0225   0.01145   0.00503  -0.1305  0.9331  0.0107  -3.0309   0.0000   6.1419
  -4.000   0.0996   0.01067   0.00425  -0.1350  0.9312  0.0261  -2.3612   0.0000   1.6233
  -3.500   0.1588   0.01000   0.00372  -0.1359  0.9221  0.0653  -1.8007   0.0000   1.1153
  -3.000   0.2335   0.00924   0.00317  -0.1401  0.9182  0.1291  -1.2038   0.0000   0.8553
  -2.500   0.2929   0.00858   0.00287  -0.1411  0.9075  0.2358  -0.9225   0.0000   0.7353
  -2.000   0.3541   0.00812   0.00263  -0.1424  0.8967  0.3218  -0.6748   0.0000   0.6542
  -1.500   0.4146   0.00752   0.00253  -0.1436  0.8848  0.4875  -0.5542   0.0000   0.5975
  -1.000   0.4727   0.00712   0.00250  -0.1440  0.8711  0.6227  -0.5909   0.0000   0.5550
  -0.500   0.5286   0.00691   0.00247  -0.1437  0.8555  0.7081  -0.6299   0.0000   0.5216
   0.000   0.5823   0.00676   0.00247  -0.1428  0.8387  0.7865  -0.6717   0.0000   0.4944
   0.500   0.6318   0.00668   0.00248  -0.1408  0.8203  0.8582  -0.7159   0.0000   0.4716
   1.000   0.6727   0.00657   0.00246  -0.1369  0.7990  0.9358  -0.7616   0.0000   0.4516
   1.500   0.7338   0.00658   0.00238  -0.1378  0.7767  1.0000  -0.8268   0.0000   0.4355
   2.000   0.7881   0.00676   0.00244  -0.1375  0.7514  1.0000  -0.8978   0.0000   0.4217
   2.500   0.8405   0.00697   0.00256  -0.1368  0.7232  1.0000  -0.9821   0.0000   0.4094
   3.000   0.8914   0.00724   0.00273  -0.1357  0.6913  1.0000  -1.0794   0.0000   0.3984
   3.500   0.9406   0.00757   0.00295  -0.1342  0.6541  1.0000  -1.1966   0.0000   0.3884
   4.000   0.9880   0.00797   0.00323  -0.1325  0.6128  1.0000  -1.3439   0.0000   0.3793
   4.500   1.0275   0.00865   0.00359  -0.1292  0.5391  1.0000  -1.5716   0.0000   0.3703
   5.000   1.0628   0.00962   0.00411  -0.1252  0.4483  1.0000  -1.8415   0.0000   0.3619
   5.500   1.0971   0.01079   0.00480  -0.1214  0.3515  1.0000  -2.1299   0.0000   0.3541
   6.000   1.1284   0.01229   0.00570  -0.1173  0.2423  1.0000  -2.4300   0.0000   0.3469
   6.500   1.1622   0.01365   0.00665  -0.1137  0.1631  1.0000  -2.8281   0.0000   0.3402
   7.000   1.1938   0.01502   0.00766  -0.1097  0.1018  1.0000  -3.3670   0.0000   0.3337
   7.500   1.2233   0.01648   0.00882  -0.1055  0.0533  1.0000  -3.9164   0.0000   0.3274
   8.000   1.2557   0.01774   0.00998  -0.1018  0.0297  1.0000  -4.5047   0.0000   0.3216
   8.500   1.2868   0.01907   0.01126  -0.0980  0.0152  1.0000  -5.1064   0.0000   0.3160
   9.000   1.3181   0.02038   0.01262  -0.0943  0.0099  1.0000  -5.7286   0.0000   0.3107
   9.500   1.3487   0.02172   0.01406  -0.0907  0.0063  1.0000  -6.3602   0.0000   0.3057
  10.000   1.3747   0.02341   0.01584  -0.0867  0.0020  1.0000  -6.9781   0.0000   0.3007


