XFLR5 v6.06

 Calculated polar for: foila

 1 1 Reynolds number fixed          Mach number fixed         

 xtrf =   1.000 (top)        1.000 (bottom)
 Mach =   0.000     Re =     0.200 e 6     Ncrit =   9.000

  alpha     CL        CD       CDp       Cm    Top Xtr Bot Xtr   Cpmin    Chinge    XCp    
 ------- -------- --------- --------- -------- ------- ------- -------- --------- ---------
  -7.000   0.0119   0.04484   0.04030  -0.1684  0.8437  0.0661  -2.4808   0.0000  14.9692
  -6.500   0.0433   0.03206   0.02584  -0.1767  0.8389  0.0641  -2.7332   0.0000   4.4893
  -6.000   0.0578   0.03047   0.02376  -0.1721  0.8277  0.0661  -2.6503   0.0000   3.3397
  -5.500   0.1254   0.02814   0.02096  -0.1752  0.8251  0.0715  -2.4217   0.0000   1.6945
  -4.500   0.2232   0.02632   0.01877  -0.1741  0.8110  0.0845  -2.0128   0.0000   1.0518
  -3.500   0.3191   0.02569   0.01805  -0.1726  0.7969  0.1058  -1.6179   0.0000   0.8028
  -3.000   0.3926   0.02470   0.01705  -0.1754  0.7949  0.1242  -1.3791   0.0000   0.7053
  -2.000   0.4909   0.02442   0.01695  -0.1740  0.7781  0.1750  -1.0244   0.0000   0.6087
  -1.000   0.5941   0.02422   0.01718  -0.1736  0.7620  0.2830  -0.8986   0.0000   0.5436
   0.000   0.7157   0.02198   0.01642  -0.1734  0.7514  0.7758  -0.9991   0.0000   0.4913
   1.000   0.7857   0.02207   0.01655  -0.1635  0.7332  0.8958  -1.0692   0.0000   0.4553
   2.000   0.9014   0.02059   0.01493  -0.1628  0.7187  0.9995  -1.1864   0.0000   0.4260
   2.500   0.9626   0.02036   0.01462  -0.1641  0.7093  0.9995  -1.2470   0.0000   0.4150
   3.000   1.0488   0.01887   0.01296  -0.1686  0.7057  0.9995  -1.3395   0.0000   0.4046
   3.500   1.1018   0.01876   0.01283  -0.1684  0.6935  0.9995  -1.4063   0.0000   0.3958
   4.000   1.1561   0.01858   0.01263  -0.1682  0.6815  0.9995  -1.4750   0.0000   0.3877
   4.500   1.2157   0.01805   0.01206  -0.1687  0.6695  0.9995  -1.5493   0.0000   0.3802
   5.000   1.2736   0.01755   0.01152  -0.1688  0.6556  0.9995  -1.6290   0.0000   0.3732
   5.500   1.3272   0.01730   0.01124  -0.1684  0.6398  0.9995  -1.7129   0.0000   0.3667
   6.000   1.3779   0.01720   0.01110  -0.1674  0.6216  0.9995  -1.7949   0.0000   0.3605
   6.500   1.4252   0.01728   0.01111  -0.1658  0.6009  0.9995  -1.8744   0.0000   0.3545
   7.000   1.4623   0.01773   0.01151  -0.1627  0.5760  0.9995  -1.9558   0.0000   0.3486
   7.500   1.4946   0.01847   0.01217  -0.1590  0.5487  0.9995  -2.0388   0.0000   0.3428
   8.000   1.5252   0.01945   0.01304  -0.1552  0.5221  0.9995  -2.1231   0.0000   0.3373
   8.500   1.5575   0.02054   0.01398  -0.1519  0.4967  0.9995  -2.2119   0.0000   0.3322
   9.000   1.5756   0.02219   0.01562  -0.1469  0.4701  0.9995  -2.2950   0.0000   0.3270
   9.500   1.5934   0.02399   0.01737  -0.1421  0.4439  0.9995  -2.3810   0.0000   0.3220
  10.000   1.6142   0.02582   0.01909  -0.1380  0.4201  0.9995  -2.4738   0.0000   0.3173


