XFLR5 v6.06

 Calculated polar for: foila

 1 1 Reynolds number fixed          Mach number fixed         

 xtrf =   1.000 (top)        1.000 (bottom)
 Mach =   0.000     Re =     0.250 e 6     Ncrit =   9.000

  alpha     CL        CD       CDp       Cm    Top Xtr Bot Xtr   Cpmin    Chinge    XCp    
 ------- -------- --------- --------- -------- ------- ------- -------- --------- ---------
  -8.000  -0.0464   0.03434   0.02931  -0.1798  0.8418  0.0509  -3.3076   0.0000  -3.7997
  -7.500  -0.0083   0.03063   0.02517  -0.1812  0.8368  0.0528  -3.1358   0.0000  -22.5323
  -7.000   0.0276   0.02658   0.02025  -0.1816  0.8299  0.0550  -3.0551   0.0000   7.1016
  -6.500   0.0812   0.02467   0.01805  -0.1825  0.8259  0.0584  -2.8040   0.0000   2.5811
  -6.000   0.1254   0.02339   0.01646  -0.1816  0.8203  0.0620  -2.6104   0.0000   1.7491
  -5.500   0.1744   0.02241   0.01529  -0.1811  0.8144  0.0670  -2.3879   0.0000   1.3219
  -5.000   0.2351   0.02129   0.01401  -0.1822  0.8107  0.0739  -2.1388   0.0000   1.0477
  -4.500   0.2773   0.02104   0.01368  -0.1803  0.8024  0.0816  -1.9464   0.0000   0.9176
  -4.000   0.3348   0.02035   0.01302  -0.1809  0.7980  0.0922  -1.7120   0.0000   0.8031
  -3.500   0.3979   0.01961   0.01226  -0.1823  0.7949  0.1063  -1.4866   0.0000   0.7175
  -3.000   0.4356   0.01995   0.01269  -0.1798  0.7854  0.1209  -1.3140   0.0000   0.6701
  -2.500   0.5009   0.01920   0.01196  -0.1814  0.7817  0.1475  -1.1042   0.0000   0.6173
  -2.000   0.5460   0.01927   0.01220  -0.1801  0.7727  0.1800  -0.9368   0.0000   0.5833
  -1.500   0.6089   0.01865   0.01173  -0.1814  0.7682  0.2311  -0.9131   0.0000   0.5501
  -0.500   0.7220   0.01743   0.01153  -0.1825  0.7546  0.5262  -0.9984   0.0000   0.5026
   0.000   0.7786   0.01678   0.01140  -0.1811  0.7509  0.7670  -1.0480   0.0000   0.4815
   0.500   0.8159   0.01717   0.01185  -0.1772  0.7404  0.8214  -1.0837   0.0000   0.4652
   1.000   0.8736   0.01638   0.01098  -0.1760  0.7361  0.8666  -1.1378   0.0000   0.4485
   1.500   0.9062   0.01642   0.01109  -0.1711  0.7252  0.9030  -1.1790   0.0000   0.4350
   2.000   0.9622   0.01548   0.01007  -0.1699  0.7208  0.9429  -1.2381   0.0000   0.4219
   2.500   1.0208   0.01522   0.00982  -0.1708  0.7092  0.9995  -1.2987   0.0000   0.4119
   3.000   1.0808   0.01507   0.00962  -0.1720  0.6990  0.9995  -1.3707   0.0000   0.4029
   3.500   1.1527   0.01450   0.00892  -0.1749  0.6916  0.9995  -1.4536   0.0000   0.3947
   4.000   1.2072   0.01437   0.00876  -0.1749  0.6781  0.9995  -1.5231   0.0000   0.3871
   4.500   1.2614   0.01423   0.00858  -0.1748  0.6634  0.9995  -1.5933   0.0000   0.3799
   5.000   1.3150   0.01418   0.00848  -0.1745  0.6478  0.9995  -1.6722   0.0000   0.3733
   5.500   1.3604   0.01439   0.00869  -0.1729  0.6287  0.9995  -1.7487   0.0000   0.3668
   6.000   1.4033   0.01468   0.00894  -0.1707  0.6067  0.9995  -1.8236   0.0000   0.3606
   6.500   1.4416   0.01511   0.00929  -0.1678  0.5826  0.9995  -1.8950   0.0000   0.3545
   7.000   1.4772   0.01576   0.00981  -0.1644  0.5560  0.9995  -1.9767   0.0000   0.3486
   7.500   1.5051   0.01674   0.01068  -0.1601  0.5283  0.9995  -2.0551   0.0000   0.3427
   8.000   1.5297   0.01798   0.01184  -0.1555  0.5017  0.9995  -2.1329   0.0000   0.3372
   9.000   1.5712   0.02119   0.01490  -0.1463  0.4495  0.9995  -2.2940   0.0000   0.3268
   9.500   1.5882   0.02317   0.01683  -0.1417  0.4240  0.9995  -2.3788   0.0000   0.3219
  10.000   1.6061   0.02524   0.01887  -0.1375  0.4009  0.9995  -2.4665   0.0000   0.3173


