XFLR5 v6.06

 Calculated polar for: foilb

 1 1 Reynolds number fixed          Mach number fixed         

 xtrf =   1.000 (top)        1.000 (bottom)
 Mach =   0.000     Re =     0.500 e 6     Ncrit =   9.000

  alpha     CL        CD       CDp       Cm    Top Xtr Bot Xtr   Cpmin    Chinge    XCp    
 ------- -------- --------- --------- -------- ------- ------- -------- --------- ---------
  -7.500  -0.3389   0.03560   0.03279  -0.1090  0.9605  0.0075  -5.0067   0.0000  -0.0825
  -6.500  -0.2361   0.01556   0.00999  -0.1215  0.9475  0.0050  -5.7075   0.0000  -0.2788
  -6.000  -0.1651   0.01379   0.00795  -0.1254  0.9453  0.0049  -5.0075   0.0000  -0.5269
  -5.500  -0.0913   0.01249   0.00643  -0.1295  0.9438  0.0050  -4.2693   0.0000  -1.1958
  -5.000  -0.0346   0.01164   0.00543  -0.1297  0.9356  0.0053  -3.6401   0.0000  -3.5678
  -4.500   0.0402   0.01078   0.00449  -0.1338  0.9333  0.0078  -2.9460   0.0000   3.6295
  -3.500   0.1738   0.00940   0.00324  -0.1386  0.9212  0.0586  -1.7334   0.0000   1.0563
  -3.000   0.2376   0.00881   0.00282  -0.1405  0.9129  0.1126  -1.1901   0.0000   0.8466
  -2.500   0.3052   0.00809   0.00247  -0.1433  0.9051  0.2224  -0.8948   0.0000   0.7229
  -2.000   0.3638   0.00768   0.00226  -0.1440  0.8928  0.3042  -0.6552   0.0000   0.6479
  -1.500   0.4220   0.00721   0.00216  -0.1447  0.8796  0.4380  -0.5581   0.0000   0.5940
  -1.000   0.4790   0.00676   0.00218  -0.1450  0.8653  0.6051  -0.5943   0.0000   0.5531
  -0.500   0.5346   0.00658   0.00217  -0.1447  0.8492  0.6892  -0.6333   0.0000   0.5204
   0.000   0.5865   0.00646   0.00221  -0.1435  0.8309  0.7670  -0.6742   0.0000   0.4939
   0.500   0.6369   0.00638   0.00225  -0.1419  0.8116  0.8386  -0.7190   0.0000   0.4715
   1.000   0.6811   0.00633   0.00228  -0.1388  0.7906  0.9093  -0.7669   0.0000   0.4519
   1.500   0.7353   0.00628   0.00220  -0.1380  0.7672  1.0000  -0.8282   0.0000   0.4354
   2.000   0.7890   0.00646   0.00228  -0.1376  0.7409  1.0000  -0.8987   0.0000   0.4216
   2.500   0.8414   0.00670   0.00240  -0.1369  0.7121  1.0000  -0.9832   0.0000   0.4094
   3.000   0.8921   0.00699   0.00257  -0.1358  0.6794  1.0000  -1.0805   0.0000   0.3984
   3.500   0.9411   0.00733   0.00280  -0.1343  0.6413  1.0000  -1.1980   0.0000   0.3884
   4.000   0.9881   0.00776   0.00308  -0.1325  0.5974  1.0000  -1.3448   0.0000   0.3793
   4.500   1.0228   0.00866   0.00349  -0.1283  0.4979  1.0000  -1.5607   0.0000   0.3700
   5.000   1.0622   0.00953   0.00402  -0.1252  0.4220  1.0000  -1.8416   0.0000   0.3620
   5.500   1.0925   0.01103   0.00483  -0.1208  0.2951  1.0000  -2.1171   0.0000   0.3541
   6.000   1.1284   0.01232   0.00567  -0.1176  0.2083  1.0000  -2.4320   0.0000   0.3471
   6.500   1.1633   0.01364   0.00659  -0.1142  0.1365  1.0000  -2.8304   0.0000   0.3405
   7.000   1.1931   0.01512   0.00767  -0.1099  0.0714  1.0000  -3.3562   0.0000   0.3339
   7.500   1.2257   0.01636   0.00873  -0.1061  0.0388  1.0000  -3.9225   0.0000   0.3277
   8.000   1.2586   0.01758   0.00986  -0.1024  0.0192  1.0000  -4.5135   0.0000   0.3219
   8.500   1.2905   0.01885   0.01112  -0.0987  0.0101  1.0000  -5.1208   0.0000   0.3163
   9.000   1.3237   0.01999   0.01235  -0.0953  0.0073  1.0000  -5.7603   0.0000   0.3111
   9.500   1.3526   0.02145   0.01387  -0.0914  0.0019  1.0000  -6.3963   0.0000   0.3060
  10.000   1.3797   0.02305   0.01561  -0.0874  0.0014  1.0000  -7.0385   0.0000   0.3010


