XFLR5 v6.06

 Calculated polar for: foilb

 1 1 Reynolds number fixed          Mach number fixed         

 xtrf =   1.000 (top)        1.000 (bottom)
 Mach =   0.000     Re =     0.100 e 6     Ncrit =   9.000

  alpha     CL        CD       CDp       Cm    Top Xtr Bot Xtr   Cpmin    Chinge    XCp    
 ------- -------- --------- --------- -------- ------- ------- -------- --------- ---------
  -8.000  -0.3535   0.10392   0.09955  -0.0297  1.0000  0.0818  -1.5494   0.0000   0.1598
  -7.500  -0.3881   0.09962   0.09544  -0.0287  1.0000  0.0843  -1.6943   0.0000   0.1708
  -7.000  -0.3933   0.09472   0.09065  -0.0243  1.0000  0.0865  -1.6669   0.0000   0.1835
  -6.500  -0.4241   0.09087   0.08696  -0.0206  1.0000  0.0888  -1.7371   0.0000   0.1973
  -6.000  -0.4465   0.08397   0.08019  -0.0239  1.0000  0.0912  -1.8587   0.0000   0.1929
  -5.500  -0.4473   0.07704   0.07330  -0.0253  1.0000  0.0938  -1.8834   0.0000   0.1902
  -5.000  -0.4349   0.06497   0.06106  -0.0372  1.0000  0.0961  -2.0454   0.0000   0.1613
  -4.500  -0.3329   0.02915   0.02124  -0.0685  1.0000  0.0315  -3.6758   0.0000   0.0379
  -3.500  -0.2351   0.02513   0.01641  -0.0692  1.0000  0.0747  -3.2337   0.0000  -0.0515
  -3.000  -0.1606   0.02439   0.01558  -0.0739  0.9920  0.1059  -2.7080   0.0000  -0.2193
  -2.500  -0.0813   0.02328   0.01484  -0.0794  0.9810  0.1936  -2.1841   0.0000  -0.7414
  -2.000  -0.0061   0.02286   0.01505  -0.0844  0.9688  0.3503  -1.6182   0.0000  -13.6532
  -1.500   0.0612   0.02257   0.01545  -0.0872  0.9552  0.5397  -1.1891   0.0000   1.6870
  -1.000   0.1147   0.02242   0.01592  -0.0860  0.9398  0.7476  -0.9455   0.0000   1.0043
  -0.500   0.1763   0.02220   0.01575  -0.0867  0.9232  1.0000  -0.7058   0.0000   0.7438
   0.000   0.2533   0.02283   0.01591  -0.0919  0.9081  1.0000  -0.4735   0.0000   0.6127
   0.500   0.3293   0.02334   0.01611  -0.0963  0.8930  1.0000  -0.5223   0.0000   0.5417
   1.000   0.4061   0.02368   0.01624  -0.1006  0.8780  1.0000  -0.5768   0.0000   0.4961
   1.500   0.4661   0.02408   0.01652  -0.1019  0.8578  1.0000  -0.6265   0.0000   0.4664
   2.000   0.5394   0.02414   0.01651  -0.1049  0.8409  1.0000  -0.6923   0.0000   0.4419
   2.500   0.6172   0.02385   0.01623  -0.1084  0.8249  1.0000  -0.7711   0.0000   0.4224
   3.000   0.7003   0.02308   0.01555  -0.1121  0.8099  1.0000  -0.8696   0.0000   0.4065
   3.500   0.7908   0.02183   0.01447  -0.1168  0.7948  1.0000  -0.9961   0.0000   0.3936
   4.000   0.8627   0.02100   0.01381  -0.1182  0.7720  1.0000  -1.1296   0.0000   0.3824
   4.500   0.9567   0.01931   0.01233  -0.1227  0.7512  1.0000  -1.3375   0.0000   0.3732
   5.000   1.0186   0.01868   0.01189  -0.1221  0.7161  1.0000  -1.6279   0.0000   0.3642
   5.500   1.0821   0.01809   0.01144  -0.1216  0.6742  1.0000  -1.9865   0.0000   0.3561
   6.000   1.1372   0.01793   0.01131  -0.1197  0.6221  1.0000  -2.3474   0.0000   0.3484
   6.500   1.1772   0.01831   0.01171  -0.1155  0.5572  1.0000  -2.6835   0.0000   0.3407
   7.000   1.2104   0.01913   0.01235  -0.1104  0.4808  1.0000  -3.2424   0.0000   0.3331
   7.500   1.2331   0.02052   0.01345  -0.1040  0.3948  1.0000  -3.7678   0.0000   0.3255
   8.000   1.2456   0.02252   0.01502  -0.0965  0.3059  1.0000  -4.2373   0.0000   0.3180
   8.500   1.2491   0.02498   0.01702  -0.0882  0.2238  1.0000  -4.6488   0.0000   0.3105
   9.000   1.2531   0.02808   0.01969  -0.0810  0.1568  1.0000  -5.0512   0.0000   0.3038
   9.500   1.2570   0.03195   0.02318  -0.0744  0.1070  1.0000  -5.4135   0.0000   0.2977
  10.000   1.2731   0.03610   0.02713  -0.0697  0.0784  1.0000  -5.8289   0.0000   0.2925


