XFLR5 v6.06

 Calculated polar for: foila

 1 1 Reynolds number fixed          Mach number fixed         

 xtrf =   1.000 (top)        1.000 (bottom)
 Mach =   0.000     Re =     0.100 e 6     Ncrit =   9.000

  alpha     CL        CD       CDp       Cm    Top Xtr Bot Xtr   Cpmin    Chinge    XCp    
 ------- -------- --------- --------- -------- ------- ------- -------- --------- ---------
  -8.000  -0.1985   0.11773   0.11319  -0.0734  0.9257  0.1190  -1.5657   0.0000  -0.1546
  -7.500  -0.2049   0.11444   0.10998  -0.0673  0.9203  0.1219  -1.5071   0.0000  -0.1105
  -7.000  -0.2371   0.11245   0.10810  -0.0644  0.9134  0.1276  -1.5756   0.0000  -0.0470
  -6.500  -0.3678   0.11836   0.11441  -0.0363  0.9581  0.1206  -1.7206   0.0000   0.1365
  -6.000  -0.4434   0.11786   0.11414  -0.0222  0.9833  0.1203  -1.8203   0.0000   0.1888
  -5.500  -0.4301   0.11004   0.10631  -0.0350  0.9688  0.1288  -1.8711   0.0000   0.1578
  -5.000  -0.3727   0.10736   0.10371  -0.0381  0.9409  0.1396  -1.6489   0.0000   0.1372
  -3.000   0.0393   0.04900   0.04078  -0.1348  0.8459  0.1195  -1.8931   0.0000   3.7764
  -2.500   0.1073   0.04796   0.03952  -0.1380  0.8314  0.1324  -1.7007   0.0000   1.5683
  -2.000   0.1738   0.04742   0.03865  -0.1409  0.8188  0.1508  -1.5157   0.0000   1.0774
  -1.000   0.3262   0.04661   0.03779  -0.1481  0.7946  0.2167  -1.1057   0.0000   0.7094
  -0.500   0.3841   0.04647   0.03788  -0.1490  0.7802  0.2726  -0.9365   0.0000   0.6410
   0.000   0.4361   0.04655   0.03846  -0.1493  0.7660  0.3691  -0.7840   0.0000   0.5938
   0.500   0.4671   0.04641   0.03994  -0.1444  0.7522  0.7909  -0.7898   0.0000   0.5591
   1.000   0.4830   0.04639   0.03995  -0.1359  0.7374  0.9995  -0.8098   0.0000   0.5302
   1.500   0.5414   0.04734   0.04052  -0.1373  0.7227  0.9995  -0.8591   0.0000   0.5010
   2.000   0.5996   0.04805   0.04094  -0.1382  0.7080  0.9995  -0.9108   0.0000   0.4768
   2.500   0.6514   0.04906   0.04175  -0.1385  0.6935  0.9995  -0.9572   0.0000   0.4579
   3.000   0.7007   0.05012   0.04265  -0.1384  0.6791  0.9995  -1.0052   0.0000   0.4418
   3.500   0.7514   0.05093   0.04333  -0.1382  0.6646  0.9995  -1.0608   0.0000   0.4273
   4.000   0.8050   0.05123   0.04353  -0.1379  0.6500  0.9995  -1.1226   0.0000   0.4138
   4.500   0.8569   0.05151   0.04374  -0.1373  0.6354  0.9995  -1.1837   0.0000   0.4018
   5.500   0.9524   0.05257   0.04475  -0.1354  0.6064  0.9995  -1.2985   0.0000   0.3821
   6.000   1.0386   0.04965   0.04181  -0.1368  0.6023  0.9995  -1.4135   0.0000   0.3708
   6.500   1.0835   0.04956   0.04175  -0.1349  0.5863  0.9995  -1.4845   0.0000   0.3627
   7.500   1.2373   0.04342   0.03571  -0.1354  0.5722  0.9995  -1.7072   0.0000   0.3459
   8.500   1.3757   0.03903   0.03147  -0.1351  0.5456  0.9995  -1.9555   0.0000   0.3330
   9.000   1.4689   0.03550   0.02797  -0.1375  0.5300  0.9995  -2.1205   0.0000   0.3276
   9.500   1.5312   0.03477   0.02724  -0.1374  0.5085  0.9995  -2.2612   0.0000   0.3228
  10.000   1.5836   0.03487   0.02734  -0.1365  0.4851  0.9995  -2.3953   0.0000   0.3184


