XFLR5 v6.06

 Calculated polar for: foilb

 1 1 Reynolds number fixed          Mach number fixed         

 xtrf =   1.000 (top)        1.000 (bottom)
 Mach =   0.000     Re =     0.300 e 6     Ncrit =   9.000

  alpha     CL        CD       CDp       Cm    Top Xtr Bot Xtr   Cpmin    Chinge    XCp    
 ------- -------- --------- --------- -------- ------- ------- -------- --------- ---------
  -7.000  -0.3584   0.04725   0.04435  -0.0880  0.9686  0.0105  -3.9564   0.0000  -0.0045
  -6.500  -0.3210   0.02366   0.01821  -0.1047  0.9575  0.0077  -5.4129   0.0000  -0.0866
  -6.000  -0.2631   0.01977   0.01362  -0.1067  0.9503  0.0075  -5.1024   0.0000  -0.1671
  -5.500  -0.1929   0.01738   0.01083  -0.1105  0.9460  0.0078  -4.5737   0.0000  -0.3365
  -5.000  -0.1291   0.01600   0.00921  -0.1126  0.9393  0.0087  -3.9836   0.0000  -0.6405
  -4.500  -0.0583   0.01482   0.00785  -0.1158  0.9341  0.0154  -3.4046   0.0000  -1.7725
  -4.000   0.0190   0.01384   0.00690  -0.1205  0.9313  0.0399  -2.7454   0.0000   6.7004
  -3.500   0.0788   0.01315   0.00633  -0.1216  0.9220  0.0817  -2.1659   0.0000   1.8128
  -3.000   0.1574   0.01223   0.00568  -0.1266  0.9192  0.1609  -1.5211   0.0000   1.0619
  -2.000   0.3006   0.01068   0.00481  -0.1335  0.9070  0.3842  -0.7853   0.0000   0.6968
  -1.500   0.3646   0.00989   0.00468  -0.1353  0.8979  0.5784  -0.5403   0.0000   0.6224
  -1.000   0.4382   0.00926   0.00432  -0.1385  0.8918  0.6884  -0.5718   0.0000   0.5665
  -0.500   0.4954   0.00889   0.00416  -0.1380  0.8792  0.7801  -0.6112   0.0000   0.5284
   0.000   0.5474   0.00856   0.00398  -0.1362  0.8652  0.8638  -0.6514   0.0000   0.4980
   0.500   0.5993   0.00821   0.00369  -0.1342  0.8499  0.9599  -0.6962   0.0000   0.4727
   1.000   0.6628   0.00816   0.00354  -0.1358  0.8312  1.0000  -0.7536   0.0000   0.4532
   1.500   0.7218   0.00818   0.00344  -0.1364  0.8112  1.0000  -0.8167   0.0000   0.4367
   2.000   0.7779   0.00826   0.00344  -0.1363  0.7885  1.0000  -0.8877   0.0000   0.4224
   2.500   0.8333   0.00838   0.00347  -0.1360  0.7634  1.0000  -0.9734   0.0000   0.4099
   3.000   0.8860   0.00857   0.00359  -0.1351  0.7346  1.0000  -1.0712   0.0000   0.3987
   3.500   0.9364   0.00881   0.00378  -0.1338  0.7014  1.0000  -1.1876   0.0000   0.3886
   4.000   0.9856   0.00914   0.00401  -0.1322  0.6641  1.0000  -1.3357   0.0000   0.3794
   4.500   1.0320   0.00957   0.00433  -0.1301  0.6214  1.0000  -1.5731   0.0000   0.3708
   5.000   1.0754   0.01009   0.00475  -0.1275  0.5707  1.0000  -1.8668   0.0000   0.3627
   5.500   1.1104   0.01093   0.00525  -0.1234  0.4934  1.0000  -2.1587   0.0000   0.3546
   6.000   1.1396   0.01211   0.00597  -0.1184  0.3971  1.0000  -2.4541   0.0000   0.3468
   6.500   1.1676   0.01351   0.00690  -0.1135  0.3033  1.0000  -2.8613   0.0000   0.3396
   7.000   1.1894   0.01530   0.00806  -0.1079  0.1976  1.0000  -3.3506   0.0000   0.3325
   7.500   1.2169   0.01688   0.00929  -0.1034  0.1316  1.0000  -3.8956   0.0000   0.3261
   8.000   1.2470   0.01833   0.01056  -0.0995  0.0901  1.0000  -4.4774   0.0000   0.3203
   8.500   1.2732   0.02006   0.01207  -0.0951  0.0509  1.0000  -5.0510   0.0000   0.3145
   9.000   1.3005   0.02171   0.01367  -0.0911  0.0308  1.0000  -5.6446   0.0000   0.3092
   9.500   1.3273   0.02340   0.01542  -0.0871  0.0209  1.0000  -6.2454   0.0000   0.3040
  10.000   1.3526   0.02523   0.01734  -0.0832  0.0151  1.0000  -6.8494   0.0000   0.2992


