XFLR5 v6.06

 Calculated polar for: foila

 1 1 Reynolds number fixed          Mach number fixed         

 xtrf =   1.000 (top)        1.000 (bottom)
 Mach =   0.000     Re =     0.150 e 6     Ncrit =   9.000

  alpha     CL        CD       CDp       Cm    Top Xtr Bot Xtr   Cpmin    Chinge    XCp    
 ------- -------- --------- --------- -------- ------- ------- -------- --------- ---------
  -8.000   0.0944   0.08143   0.07699  -0.1404  0.8964  0.1052  -1.3288   0.0000   1.8208
  -7.500   0.0517   0.08021   0.07590  -0.1368  0.8827  0.1104  -1.4538   0.0000   3.0324
  -7.000  -0.0281   0.08249   0.07839  -0.1224  0.8655  0.1106  -1.5777   0.0000  -4.3349
  -6.500  -0.1036   0.08355   0.07961  -0.1089  0.8481  0.1106  -1.6902   0.0000  -0.8566
  -6.000  -0.0758   0.07949   0.07554  -0.1056  0.8412  0.1144  -1.5422   0.0000  -1.2147
  -5.500  -0.1060   0.07377   0.06978  -0.1093  0.8276  0.1205  -1.6853   0.0000  -0.8265
  -4.500   0.0360   0.03894   0.03173  -0.1487  0.8149  0.0839  -2.2769   0.0000   4.5167
  -4.000   0.1156   0.03675   0.02904  -0.1537  0.8110  0.0926  -2.0449   0.0000   1.6180
  -3.000   0.2419   0.03491   0.02676  -0.1573  0.7957  0.1175  -1.6298   0.0000   0.9147
  -2.500   0.2811   0.03523   0.02707  -0.1557  0.7837  0.1315  -1.4689   0.0000   0.8145
  -2.000   0.3635   0.03408   0.02589  -0.1597  0.7804  0.1594  -1.2305   0.0000   0.6960
  -1.500   0.4001   0.03472   0.02670  -0.1579  0.7678  0.1859  -1.0846   0.0000   0.6492
  -1.000   0.4852   0.03343   0.02564  -0.1622  0.7649  0.2491  -0.8632   0.0000   0.5868
   0.500   0.6238   0.03231   0.02647  -0.1551  0.7358  0.8536  -0.9305   0.0000   0.4972
   1.500   0.6909   0.03295   0.02697  -0.1474  0.7087  0.9995  -0.9988   0.0000   0.4598
   2.000   0.7730   0.03171   0.02551  -0.1505  0.7050  0.9995  -1.0745   0.0000   0.4403
   3.000   0.8729   0.03259   0.02618  -0.1499  0.6801  0.9995  -1.1784   0.0000   0.4156
   3.500   0.9431   0.03127   0.02477  -0.1511  0.6734  0.9995  -1.2591   0.0000   0.4032
   4.000   1.0501   0.02748   0.02087  -0.1561  0.6770  0.9995  -1.3746   0.0000   0.3909
   5.500   1.2159   0.02555   0.01892  -0.1544  0.6406  0.9995  -1.5973   0.0000   0.3668
   6.000   1.3114   0.02298   0.01630  -0.1591  0.6335  0.9995  -1.7224   0.0000   0.3604
   6.500   1.3745   0.02221   0.01550  -0.1597  0.6179  0.9995  -1.8165   0.0000   0.3544
   7.000   1.4044   0.02278   0.01611  -0.1556  0.5952  0.9995  -1.8830   0.0000   0.3482
   7.500   1.4661   0.02222   0.01547  -0.1560  0.5745  0.9995  -1.9983   0.0000   0.3430
   8.000   1.5004   0.02285   0.01606  -0.1527  0.5480  0.9995  -2.0856   0.0000   0.3374
   8.500   1.5391   0.02355   0.01667  -0.1501  0.5224  0.9995  -2.1807   0.0000   0.3323
   9.000   1.5831   0.02425   0.01722  -0.1484  0.4974  0.9995  -2.2964   0.0000   0.3276
   9.500   1.5985   0.02601   0.01901  -0.1431  0.4709  0.9995  -2.3786   0.0000   0.3224
  10.000   1.6200   0.02766   0.02060  -0.1388  0.4454  0.9995  -2.4724   0.0000   0.3176


