XFLR5 v6.06

 Calculated polar for: foila

 1 1 Reynolds number fixed          Mach number fixed         

 xtrf =   1.000 (top)        1.000 (bottom)
 Mach =   0.000     Re =     0.500 e 6     Ncrit =   9.000

  alpha     CL        CD       CDp       Cm    Top Xtr Bot Xtr   Cpmin    Chinge    XCp    
 ------- -------- --------- --------- -------- ------- ------- -------- --------- ---------
  -8.000  -0.0458   0.01750   0.01147  -0.1853  0.8008  0.0381  -3.8676   0.0000  -3.9766
  -7.500   0.0092   0.01641   0.01018  -0.1860  0.7971  0.0404  -3.5487   0.0000  21.2175
  -7.000   0.0649   0.01567   0.00926  -0.1865  0.7936  0.0429  -3.2358   0.0000   3.2365
  -6.500   0.1179   0.01493   0.00854  -0.1866  0.7893  0.0459  -2.9459   0.0000   1.8887
  -6.000   0.1730   0.01425   0.00781  -0.1869  0.7855  0.0496  -2.6620   0.0000   1.3658
  -5.500   0.2303   0.01366   0.00714  -0.1875  0.7820  0.0546  -2.3808   0.0000   1.0884
  -5.000   0.2862   0.01315   0.00661  -0.1879  0.7780  0.0610  -2.1272   0.0000   0.9242
  -4.500   0.3405   0.01272   0.00621  -0.1879  0.7731  0.0689  -1.8781   0.0000   0.8151
  -4.000   0.3977   0.01230   0.00579  -0.1884  0.7689  0.0783  -1.6392   0.0000   0.7338
  -3.500   0.4575   0.01201   0.00546  -0.1894  0.7651  0.0902  -1.4075   0.0000   0.6714
  -3.000   0.5103   0.01171   0.00527  -0.1890  0.7598  0.1063  -1.2040   0.0000   0.6260
  -2.500   0.5672   0.01139   0.00503  -0.1894  0.7547  0.1337  -1.0053   0.0000   0.5878
  -2.000   0.6274   0.01110   0.00477  -0.1904  0.7500  0.1683  -0.9326   0.0000   0.5560
  -1.500   0.6798   0.01089   0.00472  -0.1899  0.7438  0.2073  -0.9693   0.0000   0.5307
  -1.000   0.7376   0.01057   0.00456  -0.1905  0.7386  0.2671  -1.0106   0.0000   0.5086
  -0.500   0.7935   0.01020   0.00447  -0.1909  0.7322  0.3761  -1.0555   0.0000   0.4898
   0.000   0.8465   0.00951   0.00453  -0.1907  0.7253  0.6386  -1.1021   0.0000   0.4736
   0.500   0.9009   0.00943   0.00461  -0.1901  0.7192  0.7521  -1.1499   0.0000   0.4585
   1.000   0.9528   0.00943   0.00464  -0.1891  0.7107  0.7906  -1.2010   0.0000   0.4451
   1.500   1.0056   0.00941   0.00462  -0.1882  0.7025  0.8174  -1.2570   0.0000   0.4331
   2.000   1.0570   0.00939   0.00462  -0.1871  0.6936  0.8408  -1.3124   0.0000   0.4221
   2.500   1.1067   0.00940   0.00466  -0.1859  0.6824  0.8596  -1.3733   0.0000   0.4122
   3.000   1.1553   0.00939   0.00466  -0.1843  0.6694  0.8764  -1.4381   0.0000   0.4031
   3.500   1.2034   0.00942   0.00470  -0.1828  0.6556  0.8962  -1.5028   0.0000   0.3947
   4.000   1.2476   0.00946   0.00477  -0.1804  0.6401  0.9189  -1.5651   0.0000   0.3866
   4.500   1.2917   0.00954   0.00486  -0.1782  0.6214  0.9490  -1.6276   0.0000   0.3792
   5.000   1.3434   0.00985   0.00512  -0.1780  0.5987  0.9995  -1.7068   0.0000   0.3729
   6.000   1.4234   0.01105   0.00607  -0.1730  0.5451  0.9995  -1.8515   0.0000   0.3604
   6.500   1.4546   0.01193   0.00683  -0.1691  0.5160  0.9995  -1.9164   0.0000   0.3543
   7.000   1.4833   0.01296   0.00777  -0.1650  0.4907  0.9995  -1.9911   0.0000   0.3484
   7.500   1.5088   0.01424   0.00896  -0.1606  0.4646  0.9995  -2.0667   0.0000   0.3428
   8.000   1.5299   0.01588   0.01049  -0.1561  0.4375  0.9995  -2.1409   0.0000   0.3374
   8.500   1.5534   0.01758   0.01215  -0.1522  0.4115  0.9995  -2.2179   0.0000   0.3324
   9.000   1.5741   0.01953   0.01402  -0.1482  0.3881  0.9995  -2.3055   0.0000   0.3277
   9.500   1.5958   0.02151   0.01597  -0.1444  0.3669  0.9995  -2.3976   0.0000   0.3231
  10.000   1.6149   0.02368   0.01808  -0.1406  0.3459  0.9995  -2.4878   0.0000   0.3186


