XFLR5 v6.06

 Calculated polar for: foilb

 1 1 Reynolds number fixed          Mach number fixed         

 xtrf =   1.000 (top)        1.000 (bottom)
 Mach =   0.000     Re =     0.600 e 6     Ncrit =   9.000

  alpha     CL        CD       CDp       Cm    Top Xtr Bot Xtr   Cpmin    Chinge    XCp    
 ------- -------- --------- --------- -------- ------- ------- -------- --------- ---------
  -7.500  -0.3250   0.02278   0.01884  -0.1218  0.9577  0.0059  -6.1689   0.0000  -0.1369
  -6.500  -0.2086   0.01435   0.00899  -0.1268  0.9473  0.0047  -5.5813   0.0000  -0.3735
  -6.000  -0.1379   0.01255   0.00693  -0.1306  0.9455  0.0046  -4.8818   0.0000  -0.7179
  -5.500  -0.0642   0.01132   0.00551  -0.1347  0.9441  0.0045  -4.1424   0.0000  -1.8903
  -5.000  -0.0067   0.01054   0.00458  -0.1351  0.9361  0.0046  -3.5074   0.0000  -20.3026
  -4.500   0.0650   0.00980   0.00374  -0.1385  0.9327  0.0052  -2.8276   0.0000   2.4112
  -4.000   0.1261   0.00923   0.00317  -0.1397  0.9244  0.0162  -2.2363   0.0000   1.3714
  -3.500   0.1953   0.00858   0.00260  -0.1427  0.9183  0.0457  -1.6375   0.0000   0.9879
  -3.000   0.2537   0.00810   0.00226  -0.1433  0.9070  0.0907  -1.1451   0.0000   0.8197
  -2.500   0.3123   0.00751   0.00201  -0.1442  0.8950  0.1908  -0.8797   0.0000   0.7149
  -2.000   0.3705   0.00716   0.00184  -0.1448  0.8822  0.2681  -0.6419   0.0000   0.6429
  -1.500   0.4278   0.00680   0.00174  -0.1453  0.8681  0.3699  -0.5613   0.0000   0.5907
  -1.000   0.4837   0.00627   0.00179  -0.1456  0.8527  0.5722  -0.5971   0.0000   0.5513
  -0.500   0.5395   0.00612   0.00178  -0.1454  0.8362  0.6552  -0.6362   0.0000   0.5192
   0.000   0.5921   0.00602   0.00184  -0.1445  0.8172  0.7330  -0.6774   0.0000   0.4932
   0.500   0.6437   0.00596   0.00191  -0.1433  0.7970  0.8048  -0.7232   0.0000   0.4712
   1.000   0.6915   0.00595   0.00199  -0.1411  0.7749  0.8719  -0.7736   0.0000   0.4522
   1.500   0.7329   0.00592   0.00199  -0.1374  0.7508  0.9500  -0.8269   0.0000   0.4351
   2.000   0.7906   0.00605   0.00204  -0.1378  0.7234  1.0000  -0.9005   0.0000   0.4215
   2.500   0.8426   0.00630   0.00217  -0.1370  0.6931  1.0000  -0.9849   0.0000   0.4093
   3.000   0.8930   0.00660   0.00235  -0.1359  0.6578  1.0000  -1.0821   0.0000   0.3984
   3.500   0.9418   0.00698   0.00259  -0.1345  0.6185  1.0000  -1.1997   0.0000   0.3885
   4.000   0.9819   0.00767   0.00291  -0.1313  0.5380  1.0000  -1.3371   0.0000   0.3789
   4.500   1.0212   0.00854   0.00337  -0.1282  0.4517  1.0000  -1.5588   0.0000   0.3701
   5.000   1.0571   0.00973   0.00401  -0.1246  0.3432  1.0000  -1.8292   0.0000   0.3620
   5.500   1.0918   0.01113   0.00481  -0.1211  0.2326  1.0000  -2.1179   0.0000   0.3545
   6.000   1.1289   0.01239   0.00564  -0.1181  0.1545  1.0000  -2.4363   0.0000   0.3476
   6.500   1.1645   0.01368   0.00656  -0.1148  0.0905  1.0000  -2.8287   0.0000   0.3410
   7.000   1.1957   0.01506   0.00761  -0.1107  0.0393  1.0000  -3.3596   0.0000   0.3344
   7.500   1.2295   0.01621   0.00864  -0.1070  0.0164  1.0000  -3.9302   0.0000   0.3282
   8.000   1.2643   0.01728   0.00970  -0.1036  0.0085  1.0000  -4.5460   0.0000   0.3224
   8.500   1.2999   0.01826   0.01074  -0.1004  0.0051  1.0000  -5.1932   0.0000   0.3170
   9.000   1.3305   0.01958   0.01212  -0.0965  0.0012  1.0000  -5.8306   0.0000   0.3116
   9.500   1.3613   0.02089   0.01356  -0.0928  0.0010  1.0000  -6.4953   0.0000   0.3065
  10.000   1.3897   0.02236   0.01519  -0.0889  0.0009  1.0000  -7.1638   0.0000   0.3016


