XFLR5 v6.06

 Calculated polar for: foilb

 1 1 Reynolds number fixed          Mach number fixed         

 xtrf =   1.000 (top)        1.000 (bottom)
 Mach =   0.000     Re =     0.400 e 6     Ncrit =   9.000

  alpha     CL        CD       CDp       Cm    Top Xtr Bot Xtr   Cpmin    Chinge    XCp    
 ------- -------- --------- --------- -------- ------- ------- -------- --------- ---------
  -8.000  -0.3387   0.08266   0.08028  -0.0540  0.9863  0.0183  -2.3341   0.0000   0.0811
  -7.500  -0.3321   0.06837   0.06603  -0.0699  0.9743  0.0184  -2.7887   0.0000   0.0301
  -7.000  -0.3065   0.04147   0.03839  -0.1054  0.9589  0.0184  -3.6867   0.0000  -0.1042
  -6.500  -0.2736   0.01833   0.01269  -0.1141  0.9492  0.0059  -5.6800   0.0000  -0.1792
  -6.000  -0.2045   0.01589   0.00987  -0.1178  0.9459  0.0059  -5.0927   0.0000  -0.3408
  -5.500  -0.1318   0.01432   0.00801  -0.1218  0.9435  0.0060  -4.4141   0.0000  -0.6944
  -5.000  -0.0734   0.01331   0.00680  -0.1225  0.9353  0.0065  -3.8054   0.0000  -1.4517
  -4.500   0.0013   0.01233   0.00574  -0.1265  0.9328  0.0126  -3.1335   0.0000  101.7489
  -3.500   0.1390   0.01077   0.00435  -0.1323  0.9224  0.0719  -1.8900   0.0000   1.2125
  -3.000   0.2152   0.00996   0.00376  -0.1368  0.9191  0.1396  -1.2786   0.0000   0.8914
  -2.500   0.2767   0.00925   0.00343  -0.1383  0.9096  0.2489  -0.9591   0.0000   0.7534
  -2.000   0.3444   0.00868   0.00309  -0.1409  0.9017  0.3426  -0.6947   0.0000   0.6613
  -1.500   0.4094   0.00792   0.00296  -0.1431  0.8920  0.5401  -0.5513   0.0000   0.6006
  -1.000   0.4678   0.00758   0.00287  -0.1433  0.8789  0.6437  -0.5881   0.0000   0.5568
  -0.500   0.5248   0.00734   0.00281  -0.1432  0.8644  0.7303  -0.6276   0.0000   0.5226
   0.000   0.5760   0.00718   0.00281  -0.1416  0.8472  0.8085  -0.6679   0.0000   0.4951
   0.500   0.6220   0.00705   0.00280  -0.1388  0.8285  0.8821  -0.7101   0.0000   0.4718
   1.000   0.6731   0.00687   0.00265  -0.1370  0.8094  0.9757  -0.7615   0.0000   0.4517
   1.500   0.7310   0.00696   0.00262  -0.1375  0.7868  1.0000  -0.8245   0.0000   0.4358
   2.000   0.7860   0.00711   0.00267  -0.1372  0.7624  1.0000  -0.8957   0.0000   0.4218
   2.500   0.8391   0.00731   0.00277  -0.1366  0.7350  1.0000  -0.9803   0.0000   0.4095
   3.000   0.8903   0.00756   0.00293  -0.1355  0.7040  1.0000  -1.0776   0.0000   0.3985
   3.500   0.9398   0.00787   0.00314  -0.1341  0.6682  1.0000  -1.1948   0.0000   0.3884
   4.000   0.9876   0.00826   0.00341  -0.1324  0.6281  1.0000  -1.3421   0.0000   0.3793
   4.500   1.0320   0.00877   0.00376  -0.1301  0.5784  1.0000  -1.5811   0.0000   0.3707
   5.000   1.0649   0.00972   0.00423  -0.1255  0.4802  1.0000  -1.8451   0.0000   0.3619
   5.500   1.1015   0.01068   0.00485  -0.1220  0.4021  1.0000  -2.1410   0.0000   0.3542
   6.000   1.1292   0.01225   0.00575  -0.1171  0.2820  1.0000  -2.4294   0.0000   0.3467
   6.500   1.1615   0.01367   0.00672  -0.1133  0.1957  1.0000  -2.8267   0.0000   0.3399
   7.000   1.1919   0.01510   0.00776  -0.1091  0.1266  1.0000  -3.3610   0.0000   0.3333
   7.500   1.2215   0.01657   0.00892  -0.1049  0.0742  1.0000  -3.9130   0.0000   0.3271
   8.000   1.2523   0.01795   0.01013  -0.1010  0.0426  1.0000  -4.4940   0.0000   0.3212
   8.500   1.2833   0.01930   0.01144  -0.0973  0.0242  1.0000  -5.0945   0.0000   0.3156
   9.000   1.3123   0.02078   0.01291  -0.0933  0.0136  1.0000  -5.7007   0.0000   0.3102
   9.500   1.3423   0.02219   0.01442  -0.0897  0.0102  1.0000  -6.3272   0.0000   0.3052
  10.000   1.3696   0.02380   0.01615  -0.0859  0.0055  1.0000  -6.9440   0.0000   0.3003


