XFLR5 v6.06

 Calculated polar for: foila

 1 1 Reynolds number fixed          Mach number fixed         

 xtrf =   1.000 (top)        1.000 (bottom)
 Mach =   0.000     Re =     0.550 e 6     Ncrit =   9.000

  alpha     CL        CD       CDp       Cm    Top Xtr Bot Xtr   Cpmin    Chinge    XCp    
 ------- -------- --------- --------- -------- ------- ------- -------- --------- ---------
  -8.000  -0.0442   0.01637   0.01033  -0.1857  0.7965  0.0369  -3.9015   0.0000  -4.1429
  -7.500   0.0107   0.01564   0.00943  -0.1862  0.7928  0.0393  -3.5717   0.0000  18.4092
  -7.000   0.0641   0.01479   0.00858  -0.1864  0.7886  0.0415  -3.2557   0.0000   3.2676
  -6.500   0.1198   0.01407   0.00778  -0.1868  0.7848  0.0445  -2.9604   0.0000   1.8656
  -6.000   0.1770   0.01346   0.00708  -0.1875  0.7817  0.0482  -2.6669   0.0000   1.3439
  -5.500   0.2327   0.01298   0.00658  -0.1879  0.7780  0.0530  -2.3868   0.0000   1.0813
  -5.000   0.2875   0.01251   0.00610  -0.1880  0.7734  0.0594  -2.1316   0.0000   0.9214
  -4.500   0.3445   0.01202   0.00561  -0.1885  0.7692  0.0672  -1.8756   0.0000   0.8102
  -4.000   0.4035   0.01170   0.00523  -0.1893  0.7656  0.0766  -1.6323   0.0000   0.7289
  -3.500   0.4575   0.01142   0.00502  -0.1891  0.7605  0.0877  -1.4108   0.0000   0.6708
  -3.000   0.5140   0.01109   0.00474  -0.1895  0.7559  0.1038  -1.1998   0.0000   0.6241
  -2.500   0.5733   0.01078   0.00448  -0.1903  0.7514  0.1314  -0.9962   0.0000   0.5858
  -2.000   0.6273   0.01053   0.00436  -0.1901  0.7454  0.1632  -0.9333   0.0000   0.5556
  -1.500   0.6840   0.01030   0.00422  -0.1905  0.7402  0.2024  -0.9727   0.0000   0.5297
  -1.000   0.7434   0.01005   0.00406  -0.1914  0.7353  0.2595  -1.0150   0.0000   0.5076
  -0.500   0.7959   0.00968   0.00402  -0.1910  0.7279  0.3569  -1.0579   0.0000   0.4892
   0.000   0.8522   0.00902   0.00397  -0.1916  0.7221  0.5890  -1.1066   0.0000   0.4731
   0.500   0.9029   0.00889   0.00419  -0.1903  0.7146  0.7401  -1.1520   0.0000   0.4583
   1.000   0.9579   0.00885   0.00414  -0.1899  0.7072  0.7801  -1.2053   0.0000   0.4449
   1.500   1.0092   0.00889   0.00421  -0.1889  0.6979  0.8079  -1.2602   0.0000   0.4330
   2.500   1.1125   0.00893   0.00424  -0.1869  0.6778  0.8497  -1.3785   0.0000   0.4123
   3.000   1.1615   0.00896   0.00430  -0.1856  0.6643  0.8659  -1.4435   0.0000   0.4033
   3.500   1.2100   0.00905   0.00439  -0.1841  0.6500  0.8833  -1.5087   0.0000   0.3949
   4.000   1.2557   0.00916   0.00450  -0.1822  0.6340  0.9030  -1.5722   0.0000   0.3871
   4.500   1.2989   0.00932   0.00468  -0.1798  0.6143  0.9242  -1.6340   0.0000   0.3796
   5.000   1.3443   0.00953   0.00488  -0.1780  0.5899  0.9995  -1.7084   0.0000   0.3729
   5.500   1.3873   0.01008   0.00532  -0.1762  0.5636  0.9995  -1.7832   0.0000   0.3666
   6.000   1.4242   0.01078   0.00590  -0.1731  0.5349  0.9995  -1.8530   0.0000   0.3604
   6.500   1.4551   0.01169   0.00668  -0.1692  0.5069  0.9995  -1.9177   0.0000   0.3543
   7.500   1.5098   0.01402   0.00883  -0.1609  0.4548  0.9995  -2.0685   0.0000   0.3428
   8.000   1.5328   0.01561   0.01033  -0.1566  0.4282  0.9995  -2.1449   0.0000   0.3376
   8.500   1.5555   0.01737   0.01202  -0.1526  0.4028  0.9995  -2.2213   0.0000   0.3326
   9.000   1.5778   0.01926   0.01384  -0.1488  0.3801  0.9995  -2.3110   0.0000   0.3279
   9.500   1.5982   0.02131   0.01583  -0.1450  0.3596  0.9995  -2.4017   0.0000   0.3233
  10.000   1.6210   0.02328   0.01779  -0.1415  0.3379  0.9995  -2.4974   0.0000   0.3189


