XFLR5 v6.06

 Calculated polar for: foila

 1 1 Reynolds number fixed          Mach number fixed         

 xtrf =   1.000 (top)        1.000 (bottom)
 Mach =   0.000     Re =     0.400 e 6     Ncrit =   9.000

  alpha     CL        CD       CDp       Cm    Top Xtr Bot Xtr   Cpmin    Chinge    XCp    
 ------- -------- --------- --------- -------- ------- ------- -------- --------- ---------
  -8.000  -0.0470   0.02051   0.01449  -0.1849  0.8127  0.0411  -3.7651   0.0000  -3.8589
  -7.500   0.0070   0.01899   0.01258  -0.1858  0.8090  0.0436  -3.4850   0.0000  27.7048
  -7.000   0.0577   0.01802   0.01154  -0.1856  0.8043  0.0461  -3.1895   0.0000   3.5895
  -6.500   0.1115   0.01709   0.01050  -0.1858  0.7999  0.0493  -2.9101   0.0000   1.9769
  -6.000   0.1673   0.01623   0.00953  -0.1863  0.7966  0.0531  -2.6379   0.0000   1.4004
  -5.500   0.2218   0.01564   0.00890  -0.1865  0.7928  0.0583  -2.3689   0.0000   1.1165
  -5.000   0.2746   0.01506   0.00828  -0.1863  0.7872  0.0648  -2.1303   0.0000   0.9472
  -4.500   0.3314   0.01447   0.00770  -0.1868  0.7830  0.0731  -1.8810   0.0000   0.8276
  -4.000   0.3898   0.01410   0.00729  -0.1875  0.7794  0.0833  -1.6423   0.0000   0.7416
  -3.500   0.4413   0.01383   0.00708  -0.1870  0.7734  0.0951  -1.4305   0.0000   0.6817
  -3.000   0.4988   0.01339   0.00670  -0.1876  0.7688  0.1125  -1.2184   0.0000   0.6319
  -2.500   0.5596   0.01308   0.00641  -0.1887  0.7651  0.1407  -1.0145   0.0000   0.5913
  -2.000   0.6105   0.01284   0.00634  -0.1880  0.7579  0.1747  -0.9198   0.0000   0.5607
  -1.500   0.6695   0.01245   0.00605  -0.1888  0.7529  0.2201  -0.9606   0.0000   0.5335
  -1.000   0.7261   0.01219   0.00598  -0.1892  0.7476  0.2902  -1.0009   0.0000   0.5110
  -0.500   0.7805   0.01170   0.00591  -0.1894  0.7406  0.4303  -1.0448   0.0000   0.4920
   0.000   0.8376   0.01100   0.00593  -0.1895  0.7354  0.7104  -1.0943   0.0000   0.4747
   0.500   0.8851   0.01108   0.00612  -0.1875  0.7269  0.7750  -1.1374   0.0000   0.4595
   1.000   0.9423   0.01096   0.00593  -0.1873  0.7211  0.8125  -1.1919   0.0000   0.4456
   1.500   0.9892   0.01093   0.00597  -0.1853  0.7114  0.8403  -1.2437   0.0000   0.4333
   2.000   1.0404   0.01079   0.00582  -0.1840  0.7030  0.8647  -1.2990   0.0000   0.4220
   2.500   1.0904   0.01068   0.00571  -0.1827  0.6937  0.8854  -1.3590   0.0000   0.4119
   3.000   1.1363   0.01056   0.00563  -0.1805  0.6816  0.9073  -1.4215   0.0000   0.4025
   3.500   1.1786   0.01038   0.00550  -0.1776  0.6682  0.9373  -1.4818   0.0000   0.3935
   4.000   1.2348   0.01032   0.00546  -0.1780  0.6535  0.9995  -1.5529   0.0000   0.3862
   4.500   1.2887   0.01051   0.00558  -0.1781  0.6367  0.9995  -1.6228   0.0000   0.3795
   5.000   1.3395   0.01080   0.00578  -0.1776  0.6172  0.9995  -1.7011   0.0000   0.3731
   5.500   1.3834   0.01122   0.00616  -0.1758  0.5929  0.9995  -1.7766   0.0000   0.3668
   6.000   1.4213   0.01179   0.00661  -0.1729  0.5670  0.9995  -1.8474   0.0000   0.3605
   6.500   1.4543   0.01258   0.00729  -0.1691  0.5388  0.9995  -1.9139   0.0000   0.3543
   7.000   1.4812   0.01362   0.00819  -0.1646  0.5112  0.9995  -1.9871   0.0000   0.3483
   7.500   1.5070   0.01483   0.00933  -0.1602  0.4854  0.9995  -2.0629   0.0000   0.3426
   8.000   1.5298   0.01630   0.01073  -0.1557  0.4588  0.9995  -2.1389   0.0000   0.3372
   8.500   1.5489   0.01812   0.01245  -0.1511  0.4323  0.9995  -2.2109   0.0000   0.3321
   9.000   1.5686   0.02007   0.01434  -0.1469  0.4071  0.9995  -2.2964   0.0000   0.3272
   9.500   1.5889   0.02209   0.01632  -0.1430  0.3846  0.9995  -2.3859   0.0000   0.3226
  10.000   1.6072   0.02428   0.01847  -0.1390  0.3635  0.9995  -2.4746   0.0000   0.3181


