XFLR5 v6.06

 Calculated polar for: foila

 1 1 Reynolds number fixed          Mach number fixed         

 xtrf =   1.000 (top)        1.000 (bottom)
 Mach =   0.000     Re =     0.600 e 6     Ncrit =   9.000

  alpha     CL        CD       CDp       Cm    Top Xtr Bot Xtr   Cpmin    Chinge    XCp    
 ------- -------- --------- --------- -------- ------- ------- -------- --------- ---------
  -8.000  -0.0437   0.01570   0.00964  -0.1858  0.7926  0.0360  -3.9304   0.0000  -4.1903
  -7.500   0.0099   0.01483   0.00880  -0.1861  0.7885  0.0381  -3.5905   0.0000  19.7519
  -7.000   0.0655   0.01401   0.00787  -0.1866  0.7847  0.0404  -3.2745   0.0000   3.2093
  -6.500   0.1228   0.01343   0.00715  -0.1873  0.7814  0.0435  -2.9703   0.0000   1.8296
  -6.000   0.1785   0.01296   0.00664  -0.1877  0.7780  0.0471  -2.6755   0.0000   1.3352
  -5.500   0.2334   0.01238   0.00609  -0.1879  0.7738  0.0518  -2.3968   0.0000   1.0788
  -5.000   0.2902   0.01190   0.00560  -0.1884  0.7698  0.0580  -2.1320   0.0000   0.9163
  -4.500   0.3487   0.01150   0.00514  -0.1891  0.7661  0.0659  -1.8716   0.0000   0.8052
  -4.000   0.4038   0.01119   0.00487  -0.1892  0.7617  0.0747  -1.6354   0.0000   0.7283
  -3.500   0.4599   0.01087   0.00459  -0.1894  0.7568  0.0856  -1.4088   0.0000   0.6692
  -3.000   0.5182   0.01057   0.00429  -0.1901  0.7528  0.1017  -1.1937   0.0000   0.6222
  -2.500   0.5744   0.01033   0.00414  -0.1903  0.7476  0.1284  -0.9956   0.0000   0.5851
  -2.000   0.6299   0.01005   0.00395  -0.1904  0.7417  0.1595  -0.9356   0.0000   0.5547
  -1.500   0.6883   0.00983   0.00380  -0.1911  0.7373  0.1981  -0.9760   0.0000   0.5288
  -1.000   0.7431   0.00960   0.00374  -0.1911  0.7312  0.2505  -1.0156   0.0000   0.5073
  -0.500   0.7991   0.00924   0.00362  -0.1914  0.7246  0.3379  -1.0607   0.0000   0.4887
   0.000   0.8546   0.00871   0.00361  -0.1918  0.7186  0.5373  -1.1087   0.0000   0.4727
   0.500   0.9059   0.00841   0.00379  -0.1908  0.7109  0.7273  -1.1546   0.0000   0.4580
   1.000   0.9601   0.00843   0.00381  -0.1903  0.7034  0.7712  -1.2074   0.0000   0.4448
   1.500   1.0129   0.00846   0.00384  -0.1895  0.6943  0.8000  -1.2633   0.0000   0.4329
   2.000   1.0644   0.00851   0.00393  -0.1886  0.6847  0.8229  -1.3187   0.0000   0.4222
   2.500   1.1157   0.00856   0.00397  -0.1876  0.6728  0.8416  -1.3815   0.0000   0.4124
   3.000   1.1663   0.00864   0.00403  -0.1866  0.6596  0.8576  -1.4478   0.0000   0.4035
   3.500   1.2147   0.00874   0.00414  -0.1851  0.6451  0.8728  -1.5129   0.0000   0.3951
   4.000   1.2614   0.00890   0.00431  -0.1834  0.6277  0.8906  -1.5771   0.0000   0.3874
   4.500   1.3049   0.00910   0.00451  -0.1811  0.6064  0.9093  -1.6393   0.0000   0.3800
   5.000   1.3450   0.00940   0.00478  -0.1782  0.5817  0.9344  -1.7096   0.0000   0.3729
   5.500   1.3871   0.00986   0.00517  -0.1761  0.5554  0.9995  -1.7837   0.0000   0.3666
   6.000   1.4237   0.01060   0.00578  -0.1730  0.5256  0.9995  -1.8533   0.0000   0.3604
   6.500   1.4549   0.01153   0.00657  -0.1692  0.4987  0.9995  -1.9181   0.0000   0.3543
   7.000   1.4861   0.01250   0.00748  -0.1655  0.4732  0.9995  -1.9953   0.0000   0.3485
   7.500   1.5110   0.01384   0.00871  -0.1612  0.4463  0.9995  -2.0704   0.0000   0.3429
   8.000   1.5336   0.01547   0.01025  -0.1569  0.4201  0.9995  -2.1463   0.0000   0.3377
   8.500   1.5583   0.01715   0.01186  -0.1532  0.3945  0.9995  -2.2256   0.0000   0.3328
   9.000   1.5805   0.01906   0.01370  -0.1494  0.3734  0.9995  -2.3152   0.0000   0.3280
   9.500   1.6046   0.02090   0.01552  -0.1459  0.3523  0.9995  -2.4113   0.0000   0.3235
  10.000   1.6235   0.02309   0.01765  -0.1420  0.3305  0.9995  -2.5018   0.0000   0.3191


