XFLR5 v6.06

 Calculated polar for: foilb

 1 1 Reynolds number fixed          Mach number fixed         

 xtrf =   1.000 (top)        1.000 (bottom)
 Mach =   0.000     Re =     0.150 e 6     Ncrit =   9.000

  alpha     CL        CD       CDp       Cm    Top Xtr Bot Xtr   Cpmin    Chinge    XCp    
 ------- -------- --------- --------- -------- ------- ------- -------- --------- ---------
  -8.000  -0.3759   0.10076   0.09724  -0.0302  1.0000  0.0508  -1.7068   0.0000   0.1635
  -7.500  -0.4247   0.09494   0.09139  -0.0286  1.0000  0.0508  -1.8881   0.0000   0.1763
  -7.000  -0.4462   0.09124   0.08783  -0.0240  1.0000  0.0514  -1.9029   0.0000   0.1908
  -6.500  -0.4649   0.08685   0.08354  -0.0218  1.0000  0.0525  -1.9315   0.0000   0.1984
  -6.000  -0.4434   0.07454   0.07122  -0.0392  0.9929  0.0554  -2.1025   0.0000   0.1569
  -5.500  -0.3786   0.03380   0.02814  -0.0758  0.9845  0.0174  -4.0254   0.0000   0.0429
  -5.000  -0.3005   0.02636   0.01914  -0.0826  0.9795  0.0173  -4.0504   0.0000  -0.0333
  -4.500  -0.2311   0.02304   0.01520  -0.0859  0.9713  0.0207  -3.8108   0.0000  -0.1314
  -4.000  -0.1608   0.02122   0.01327  -0.0898  0.9626  0.0441  -3.4584   0.0000  -0.3203
  -3.500  -0.0880   0.02044   0.01245  -0.0940  0.9540  0.0714  -2.8640   0.0000  -0.8370
  -3.000  -0.0149   0.01957   0.01182  -0.0983  0.9450  0.1435  -2.2570   0.0000  -6.4540
  -2.500   0.0518   0.01901   0.01172  -0.1015  0.9340  0.2716  -1.6717   0.0000   2.2305
  -2.000   0.1181   0.01847   0.01172  -0.1042  0.9229  0.4290  -1.1912   0.0000   1.1393
  -1.500   0.1833   0.01802   0.01175  -0.1059  0.9120  0.5881  -0.9168   0.0000   0.8317
  -1.000   0.2433   0.01760   0.01177  -0.1058  0.9010  0.7465  -0.6749   0.0000   0.6866
  -0.500   0.3093   0.01682   0.01128  -0.1059  0.8918  1.0000  -0.5062   0.0000   0.5928
   0.000   0.3818   0.01675   0.01091  -0.1096  0.8794  1.0000  -0.5525   0.0000   0.5365
   0.500   0.4538   0.01657   0.01054  -0.1127  0.8671  1.0000  -0.6030   0.0000   0.4972
   1.000   0.5282   0.01620   0.01003  -0.1160  0.8553  1.0000  -0.6610   0.0000   0.4678
   2.000   0.6943   0.01488   0.00862  -0.1251  0.8344  1.0000  -0.8154   0.0000   0.4275
   2.500   0.7610   0.01448   0.00826  -0.1265  0.8163  1.0000  -0.9003   0.0000   0.4130
   3.000   0.8327   0.01394   0.00776  -0.1286  0.7972  1.0000  -1.0074   0.0000   0.4008
   3.500   0.8960   0.01363   0.00750  -0.1291  0.7727  1.0000  -1.1269   0.0000   0.3900
   4.000   0.9560   0.01344   0.00735  -0.1291  0.7435  1.0000  -1.2770   0.0000   0.3803
   4.500   1.0140   0.01336   0.00729  -0.1285  0.7090  1.0000  -1.4904   0.0000   0.3716
   5.000   1.0639   0.01353   0.00747  -0.1266  0.6667  1.0000  -1.7989   0.0000   0.3632
   5.500   1.1097   0.01388   0.00780  -0.1240  0.6168  1.0000  -2.1102   0.0000   0.3554
   6.000   1.1507   0.01444   0.00828  -0.1205  0.5576  1.0000  -2.4417   0.0000   0.3478
   6.500   1.1857   0.01529   0.00895  -0.1162  0.4889  1.0000  -2.8638   0.0000   0.3404
   7.000   1.2139   0.01646   0.00989  -0.1109  0.4115  1.0000  -3.4102   0.0000   0.3331
   7.500   1.2333   0.01806   0.01110  -0.1044  0.3248  1.0000  -3.9210   0.0000   0.3258
   8.000   1.2446   0.02002   0.01260  -0.0970  0.2377  1.0000  -4.3908   0.0000   0.3185
   8.500   1.2584   0.02228   0.01450  -0.0907  0.1678  1.0000  -4.8819   0.0000   0.3119
   9.000   1.2709   0.02495   0.01685  -0.0847  0.1091  1.0000  -5.3590   0.0000   0.3058
   9.500   1.2781   0.02826   0.01989  -0.0785  0.0688  1.0000  -5.7717   0.0000   0.2999
  10.000   1.2901   0.03138   0.02297  -0.0735  0.0497  1.0000  -6.2372   0.0000   0.2947


