XFLR5 v6.06

Wing name :        Wing Name
Wing polar name :  T1-9.4 m/s-LLT-x0.000mm
Freestream speed :   9.400 m/s


   alpha      CL          ICd        PCd        TCd        CY        Cm         Rm         Ym       IYm       QInf        XCP
 _________  ________   ________  _________  _________  _________  _________  _________  _________  _________  _________  _________
   -1.000   0.580560   0.002956   0.010109   0.013065   0.000000  -0.331348  -0.000000   0.000000   0.000000    9.4000     0.4030
   -0.950   0.586081   0.002999   0.010073   0.013072   0.000000  -0.333151  -0.000000   0.000000   0.000000    9.4000     0.4011
   -0.900   0.591273   0.003070   0.010038   0.013108   0.000000  -0.334852  -0.000000   0.000000   0.000000    9.4000     0.3994
   -0.850   0.596536   0.003134   0.010003   0.013137   0.000000  -0.336578  -0.000000   0.000000   0.000000    9.4000     0.3976
   -0.800   0.601870   0.003192   0.009968   0.013160   0.000000  -0.338331  -0.000000   0.000000   0.000000    9.4000     0.3958
   -0.750   0.607243   0.003247   0.009933   0.013179   0.000000  -0.340101  -0.000000   0.000000   0.000000    9.4000     0.3939
   -0.700   0.612602   0.003300   0.009899   0.013199   0.000000  -0.341861  -0.000000   0.000000   0.000000    9.4000     0.3921
   -0.650   0.617942   0.003353   0.009867   0.013220   0.000000  -0.343605  -0.000000   0.000000   0.000000    9.4000     0.3905
   -0.600   0.623312   0.003406   0.009830   0.013235   0.000000  -0.345364  -0.000000   0.000000   0.000000    9.4000     0.3889
   -0.550   0.628692   0.003460   0.009792   0.013251   0.000000  -0.347134  -0.000000   0.000000   0.000000    9.4000     0.3875
   -0.500   0.634066   0.003515   0.009753   0.013268   0.000000  -0.348906  -0.000000   0.000000   0.000000    9.4000     0.3859
   -0.450   0.639474   0.003568   0.009715   0.013283   0.000000  -0.350695  -0.000000   0.000000   0.000000    9.4000     0.3843
   -0.400   0.644880   0.003622   0.009676   0.013298   0.000000  -0.352487  -0.000000   0.000000   0.000000    9.4000     0.3827
   -0.350   0.650284   0.003676   0.009638   0.013314   0.000000  -0.354284  -0.000000   0.000000  -0.000000    9.4000     0.3811
   -0.300   0.655688   0.003731   0.009599   0.013331   0.000000  -0.356084  -0.000000   0.000000   0.000000    9.4000     0.3794
   -0.250   0.661092   0.003787   0.009561   0.013348   0.000000  -0.357889   0.000000   0.000000   0.000000    9.4000     0.3778
   -0.200   0.666471   0.003844   0.009523   0.013367   0.000000  -0.359688  -0.000000   0.000000   0.000000    9.4000     0.3761
   -0.150   0.671828   0.003900   0.009488   0.013387   0.000000  -0.361470  -0.000000   0.000000   0.000000    9.4000     0.3745
   -0.100   0.677076   0.003957   0.009459   0.013416   0.000000  -0.363187  -0.000000   0.000000   0.000000    9.4000     0.3730
   -0.050   0.682198   0.004012   0.009430   0.013443   0.000000  -0.364840  -0.000000   0.000000   0.000000    9.4000     0.3715
    0.000   0.687295   0.004068   0.009402   0.013470   0.000000  -0.366484  -0.000000   0.000000   0.000000    9.4000     0.3700
    0.050   0.692391   0.004123   0.009374   0.013497   0.000000  -0.368131  -0.000000   0.000000  -0.000000    9.4000     0.3686
    0.100   0.697478   0.004179   0.009346   0.013525   0.000000  -0.369778  -0.000000   0.000000   0.000000    9.4000     0.3672
    0.150   0.702575   0.004235   0.009318   0.013552   0.000000  -0.371432  -0.000000   0.000000   0.000000    9.4000     0.3659
    0.200   0.707665   0.004291   0.009290   0.013581   0.000000  -0.373088  -0.000000   0.000000   0.000000    9.4000     0.3647
    0.250   0.712752   0.004348   0.009262   0.013610   0.000000  -0.374746  -0.000000   0.000000   0.000000    9.4000     0.3634
    0.300   0.717837   0.004406   0.009234   0.013640   0.000000  -0.376409  -0.000000   0.000000   0.000000    9.4000     0.3622
    0.350   0.722863   0.004464   0.009207   0.013671   0.000000  -0.378044  -0.000000   0.000000  -0.000000    9.4000     0.3610
    0.400   0.727834   0.004521   0.009184   0.013705   0.000000  -0.379653  -0.000000   0.000000  -0.000000    9.4000     0.3598
    0.450   0.732802   0.004580   0.009176   0.013755   0.000000  -0.381248  -0.000000   0.000000  -0.000000    9.4000     0.3587
    0.500   0.737746   0.004640   0.009169   0.013809   0.000000  -0.382836  -0.000000   0.000000   0.000000    9.4000     0.3577
    0.550   0.742704   0.004698   0.009163   0.013861   0.000000  -0.384432  -0.000000   0.000000   0.000000    9.4000     0.3566
    0.600   0.747645   0.004758   0.009157   0.013915   0.000000  -0.386026  -0.000000   0.000000   0.000000    9.4000     0.3556
    0.650   0.752605   0.004817   0.009150   0.013967   0.000000  -0.387630  -0.000000   0.000000   0.000000    9.4000     0.3545
    0.700   0.757549   0.004878   0.009144   0.014022   0.000000  -0.389233  -0.000000   0.000000   0.000000    9.4000     0.3534
    0.750   0.762513   0.004938   0.009137   0.014075   0.000000  -0.390847  -0.000000   0.000000  -0.000000    9.4000     0.3522
    0.800   0.767459   0.005000   0.009130   0.014130   0.000000  -0.392459  -0.000000   0.000000  -0.000000    9.4000     0.3510
    0.850   0.772431   0.005060   0.009123   0.014184   0.000000  -0.394085  -0.000000   0.000000  -0.000000    9.4000     0.3499
    0.900   0.777438   0.005122   0.009116   0.014238   0.000000  -0.395734  -0.000000   0.000000   0.000000    9.4000     0.3487
    0.950   0.782434   0.005184   0.009110   0.014294   0.000000  -0.397383  -0.000000   0.000000   0.000000    9.4000     0.3476
    1.000   0.787410   0.005247   0.009103   0.014351   0.000000  -0.399026  -0.000000   0.000000   0.000000    9.4000     0.3466
    1.050   0.792402   0.005311   0.009097   0.014408   0.000000  -0.400681  -0.000000   0.000000  -0.000000    9.4000     0.3455
    1.100   0.797393   0.005374   0.009091   0.014465   0.000000  -0.402339  -0.000000   0.000000   0.000000    9.4000     0.3445
    1.150   0.802383   0.005439   0.009085   0.014523   0.000000  -0.404001  -0.000000   0.000000  -0.000000    9.4000     0.3434
    1.200   0.807374   0.005504   0.009078   0.014582   0.000000  -0.405667  -0.000000   0.000000   0.000000    9.4000     0.3424
    1.250   0.812364   0.005569   0.009072   0.014641   0.000000  -0.407337  -0.000000   0.000000   0.000000    9.4000     0.3413
    1.300   0.817354   0.005634   0.009066   0.014700   0.000000  -0.409011  -0.000000   0.000000   0.000000    9.4000     0.3403
    1.350   0.822372   0.005701   0.009059   0.014760   0.000000  -0.410704  -0.000000   0.000000   0.000000    9.4000     0.3392
    1.400   0.827414   0.005764   0.009053   0.014817   0.000000  -0.412412  -0.000000   0.000000   0.000000    9.4000     0.3382
    1.450   0.832317   0.005831   0.009047   0.014877   0.000000  -0.414056  -0.000000   0.000000   0.000000    9.4000     0.3372
    1.500   0.837183   0.005897   0.009039   0.014936   0.000000  -0.415685  -0.000000   0.000000   0.000000    9.4000     0.3363
    1.550   0.842072   0.005964   0.009032   0.014996   0.000000  -0.417330  -0.000000   0.000000   0.000000    9.4000     0.3354
    1.600   0.846991   0.006029   0.009025   0.015054   0.000000  -0.418991  -0.000000   0.000000   0.000000    9.4000     0.3345
    1.650   0.851886   0.006098   0.009019   0.015116   0.000000  -0.420647  -0.000000   0.000000   0.000000    9.4000     0.3336
    1.700   0.856801   0.006164   0.009012   0.015176   0.000000  -0.422315  -0.000000   0.000000   0.000000    9.4000     0.3326
    1.750   0.861693   0.006234   0.009006   0.015239   0.000000  -0.423978  -0.000000   0.000000   0.000000    9.4000     0.3317
    1.800   0.866606   0.006301   0.008999   0.015300   0.000000  -0.425653  -0.000000   0.000000   0.000000    9.4000     0.3308
    1.850   0.871503   0.006372   0.008993   0.015365   0.000000  -0.427326  -0.000000   0.000000   0.000000    9.4000     0.3299
    1.900   0.876441   0.006443   0.008988   0.015431   0.000000  -0.429027  -0.000000   0.000000   0.000000    9.4000     0.3290
    1.950   0.881325   0.006515   0.008983   0.015498   0.000000  -0.430704  -0.000000   0.000000   0.000000    9.4000     0.3281
    2.000   0.886126   0.006586   0.008979   0.015565   0.000000  -0.432345  -0.000000   0.000000   0.000000    9.4000     0.3273
    2.050   0.890903   0.006656   0.008976   0.015632   0.000000  -0.433978  -0.000000   0.000000   0.000000    9.4000     0.3265
    2.100   0.895680   0.006726   0.008972   0.015699   0.000000  -0.435613  -0.000000   0.000000   0.000000    9.4000     0.3256
    2.150   0.900444   0.006796   0.008969   0.015766   0.000000  -0.437246  -0.000000   0.000000   0.000000    9.4000     0.3248
    2.200   0.905210   0.006867   0.008966   0.015833   0.000000  -0.438883  -0.000000   0.000000   0.000000    9.4000     0.3240
    2.250   0.909977   0.006937   0.008963   0.015901   0.000000  -0.440524  -0.000000   0.000000   0.000000    9.4000     0.3232
    2.300   0.914743   0.007009   0.008960   0.015969   0.000000  -0.442169  -0.000000   0.000000   0.000000    9.4000     0.3224
    2.350   0.919510   0.007080   0.008957   0.016037   0.000000  -0.443818  -0.000000   0.000000   0.000000    9.4000     0.3216
    2.400   0.924278   0.007152   0.008955   0.016107   0.000000  -0.445472  -0.000000   0.000000   0.000000    9.4000     0.3207
    2.450   0.929181   0.007226   0.008954   0.016180   0.000000  -0.447206  -0.000000   0.000000   0.000000    9.4000     0.3200
    2.500   0.934046   0.007300   0.008952   0.016252   0.000000  -0.448923  -0.000000   0.000000   0.000000    9.4000     0.3192
    2.550   0.938922   0.007374   0.008950   0.016324   0.000000  -0.450649  -0.000000   0.000000  -0.000000    9.4000     0.3185
    2.600   0.943794   0.007449   0.008948   0.016397   0.000000  -0.452377  -0.000000   0.000000   0.000000    9.4000     0.3177
    2.650   0.948651   0.007526   0.008946   0.016471   0.000000  -0.454102  -0.000000   0.000000   0.000000    9.4000     0.3170
    2.700   0.953515   0.007600   0.008944   0.016544   0.000000  -0.455833  -0.000000   0.000000   0.000000    9.4000     0.3163
    2.750   0.958363   0.007677   0.008942   0.016620   0.000000  -0.457560  -0.000000   0.000000   0.000000    9.4000     0.3155
    2.800   0.963229   0.007752   0.008941   0.016693   0.000000  -0.459300  -0.000000   0.000000   0.000000    9.4000     0.3148
    2.850   0.968077   0.007830   0.008939   0.016769   0.000000  -0.461036  -0.000000   0.000000   0.000000    9.4000     0.3141
    2.900   0.972944   0.007906   0.008937   0.016843   0.000000  -0.462784  -0.000000   0.000000  -0.000000    9.4000     0.3134
    2.950   0.977782   0.007985   0.008936   0.016921   0.000000  -0.464522  -0.000000   0.000000  -0.000000    9.4000     0.3126
    3.000   0.982685   0.008062   0.008936   0.016998   0.000000  -0.466301  -0.000000   0.000000   0.000000    9.4000     0.3119
    3.050   0.987454   0.008141   0.008935   0.017076   0.000000  -0.468014  -0.000000   0.000000  -0.000000    9.4000     0.3113
    3.100   0.992209   0.008219   0.008935   0.017154   0.000000  -0.469723  -0.000000   0.000000   0.000000    9.4000     0.3106
    3.150   0.996967   0.008297   0.008934   0.017231   0.000000  -0.471437  -0.000000   0.000000   0.000000    9.4000     0.3099
    3.200   1.001729   0.008371   0.008934   0.017306   0.000000  -0.473155  -0.000000   0.000000   0.000000    9.4000     0.3093
    3.250   1.006464   0.008450   0.008935   0.017384   0.000000  -0.474864  -0.000000   0.000000   0.000000    9.4000     0.3086
    3.300   1.011213   0.008526   0.008935   0.017461   0.000000  -0.476583  -0.000000   0.000000   0.000000    9.4000     0.3079
    3.350   1.015942   0.008606   0.008935   0.017542   0.000000  -0.478298  -0.000000   0.000000   0.000000    9.4000     0.3073
    3.400   1.020689   0.008684   0.008936   0.017620   0.000000  -0.480024  -0.000000   0.000000   0.000000    9.4000     0.3066
    3.450   1.025416   0.008765   0.008936   0.017701   0.000000  -0.481745  -0.000000   0.000000   0.000000    9.4000     0.3060
    3.500   1.030216   0.008845   0.008940   0.017784   0.000000  -0.483510  -0.000000   0.000000   0.000000    9.4000     0.3053
    3.550   1.035025   0.008928   0.008947   0.017875   0.000000  -0.485292  -0.000000   0.000000   0.000000    9.4000     0.3047
    3.600   1.039818   0.009008   0.008955   0.017963   0.000000  -0.487070  -0.000000   0.000000  -0.000000    9.4000     0.3041
    3.650   1.044592   0.009092   0.008963   0.018055   0.000000  -0.488844  -0.000000   0.000000  -0.000000    9.4000     0.3035
    3.700   1.049386   0.009173   0.008971   0.018144   0.000000  -0.490630  -0.000000   0.000000   0.000000    9.4000     0.3029
    3.750   1.054154   0.009258   0.008979   0.018237   0.000000  -0.492408  -0.000000   0.000000  -0.000000    9.4000     0.3023
    3.800   1.058921   0.009342   0.008988   0.018330   0.000000  -0.494188  -0.000000   0.000000  -0.000000    9.4000     0.3017
    3.850   1.063688   0.009426   0.008996   0.018422   0.000000  -0.495972  -0.000000   0.000000   0.000000    9.4000     0.3011
    3.900   1.068456   0.009510   0.009005   0.018515   0.000000  -0.497760  -0.000000   0.000000   0.000000    9.4000     0.3006
    3.950   1.073225   0.009595   0.009013   0.018608   0.000000  -0.499552  -0.000000   0.000000  -0.000000    9.4000     0.3000
    4.000   1.077980   0.009679   0.009022   0.018702   0.000000  -0.501340  -0.000000   0.000000  -0.000000    9.4000     0.2994
    4.050   1.082676   0.009764   0.009033   0.018796   0.000000  -0.503101  -0.000000   0.000000   0.000000    9.4000     0.2988
    4.100   1.087322   0.009848   0.009044   0.018892   0.000000  -0.504839  -0.000000   0.000000   0.000000    9.4000     0.2982
    4.150   1.091961   0.009932   0.009056   0.018987   0.000000  -0.506577  -0.000000   0.000000  -0.000000    9.4000     0.2977
    4.200   1.096600   0.010016   0.009067   0.019083   0.000000  -0.508319  -0.000000   0.000000  -0.000000    9.4000     0.2971
    4.250   1.101240   0.010101   0.009079   0.019179   0.000000  -0.510064  -0.000000   0.000000  -0.000000    9.4000     0.2966
    4.300   1.105872   0.010185   0.009091   0.019276   0.000000  -0.511809  -0.000000   0.000000   0.000000    9.4000     0.2960
    4.350   1.110494   0.010273   0.009102   0.019375   0.000000  -0.513553  -0.000000   0.000000  -0.000000    9.4000     0.2955
    4.400   1.115115   0.010361   0.009114   0.019475   0.000000  -0.515301  -0.000000   0.000000  -0.000000    9.4000     0.2949
    4.450   1.119749   0.010447   0.009126   0.019572   0.000000  -0.517057  -0.000000   0.000000   0.000000    9.4000     0.2944
    4.500   1.124367   0.010535   0.009138   0.019672   0.000000  -0.518809  -0.000000   0.000000   0.000000    9.4000     0.2938
    4.550   1.129019   0.010620   0.009153   0.019773   0.000000  -0.520583  -0.000000   0.000000   0.000000    9.4000     0.2933
    4.600   1.133753   0.010710   0.009176   0.019886   0.000000  -0.522414  -0.000000   0.000000   0.000000    9.4000     0.2928
    4.650   1.138511   0.010799   0.009199   0.019998   0.000000  -0.524260  -0.000000   0.000000  -0.000000    9.4000     0.2923
    4.700   1.143254   0.010890   0.009223   0.020113   0.000000  -0.526103  -0.000000   0.000000   0.000000    9.4000     0.2918
    4.750   1.148012   0.010979   0.009247   0.020226   0.000000  -0.527957  -0.000000   0.000000   0.000000    9.4000     0.2913
    4.800   1.152752   0.011072   0.009271   0.020343   0.000000  -0.529806  -0.000000   0.000000   0.000000    9.4000     0.2908
    4.850   1.157501   0.011161   0.009295   0.020457   0.000000  -0.531661  -0.000000   0.000000   0.000000    9.4000     0.2903
    4.900   1.162235   0.011254   0.009320   0.020574   0.000000  -0.533514  -0.000000   0.000000  -0.000000    9.4000     0.2898
    4.950   1.166984   0.011345   0.009344   0.020689   0.000000  -0.535377  -0.000000   0.000000  -0.000000    9.4000     0.2893
    5.000   1.171718   0.011439   0.009368   0.020807   0.000000  -0.537236  -0.000000   0.000000  -0.000000    9.4000     0.2888
    5.050   1.176447   0.011530   0.009394   0.020924   0.000000  -0.539095  -0.000000   0.000000  -0.000000    9.4000     0.2883
    5.100   1.181053   0.011618   0.009426   0.021044   0.000000  -0.540894  -0.000000   0.000000  -0.000000    9.4000     0.2878
    5.150   1.185585   0.011707   0.009463   0.021170   0.000000  -0.542657  -0.000000   0.000000  -0.000000    9.4000     0.2874
    5.200   1.190096   0.011796   0.009500   0.021296   0.000000  -0.544411  -0.000000   0.000000  -0.000000    9.4000     0.2869
    5.250   1.194606   0.011885   0.009538   0.021423   0.000000  -0.546168  -0.000000   0.000000  -0.000000    9.4000     0.2864
    5.300   1.199115   0.011975   0.009575   0.021551   0.000000  -0.547928  -0.000000   0.000000  -0.000000    9.4000     0.2859
    5.350   1.203606   0.012068   0.009613   0.021681   0.000000  -0.549682  -0.000000   0.000000   0.000000    9.4000     0.2855
    5.400   1.208110   0.012158   0.009651   0.021808   0.000000  -0.551444  -0.000000   0.000000  -0.000000    9.4000     0.2850
    5.450   1.212611   0.012248   0.009689   0.021937   0.000000  -0.553209  -0.000000   0.000000  -0.000000    9.4000     0.2845
    5.500   1.217099   0.012341   0.009726   0.022068   0.000000  -0.554971  -0.000000   0.000000  -0.000000    9.4000     0.2841
    5.550   1.221598   0.012431   0.009765   0.022196   0.000000  -0.556740  -0.000000   0.000000  -0.000000    9.4000     0.2836
    5.600   1.225927   0.012523   0.009808   0.022330   0.000000  -0.558425  -0.000000   0.000000  -0.000000    9.4000     0.2832
    5.650   1.230015   0.012607   0.009859   0.022466   0.000000  -0.559985  -0.000000   0.000000  -0.000000    9.4000     0.2827
    5.700   1.234047   0.012692   0.009912   0.022604   0.000000  -0.561516  -0.000000   0.000000  -0.000000    9.4000     0.2822
    5.750   1.238084   0.012777   0.009965   0.022742   0.000000  -0.563052  -0.000000   0.000000  -0.000000    9.4000     0.2818
    5.800   1.242123   0.012862   0.010018   0.022879   0.000000  -0.564593  -0.000000   0.000000  -0.000000    9.4000     0.2813
    5.850   1.246164   0.012946   0.010071   0.023017   0.000000  -0.566136   0.000000   0.000000  -0.000000    9.4000     0.2809
    5.900   1.250195   0.013030   0.010124   0.023155   0.000000  -0.567677  -0.000000   0.000000  -0.000000    9.4000     0.2804
    5.950   1.254223   0.013115   0.010178   0.023293   0.000000  -0.569218  -0.000000   0.000000  -0.000000    9.4000     0.2800
    6.000   1.258252   0.013200   0.010232   0.023432   0.000000  -0.570763  -0.000000   0.000000  -0.000000    9.4000     0.2795
    6.050   1.262281   0.013285   0.010285   0.023570   0.000000  -0.572311  -0.000000   0.000000  -0.000000    9.4000     0.2791
    6.100   1.266231   0.013369   0.010341   0.023710   0.000000  -0.573820  -0.000000   0.000000  -0.000000    9.4000     0.2786
    6.150   1.269959   0.013450   0.010403   0.023853   0.000000  -0.575217  -0.000000   0.000000  -0.000000    9.4000     0.2782
    6.200   1.273637   0.013529   0.010468   0.023997   0.000000  -0.576591  -0.000000   0.000000  -0.000000    9.4000     0.2777
    6.250   1.277316   0.013609   0.010532   0.024141   0.000000  -0.577967  -0.000000   0.000000  -0.000000    9.4000     0.2773
    6.300   1.280994   0.013688   0.010597   0.024285   0.000000  -0.579345   0.000000   0.000000  -0.000000    9.4000     0.2768
    6.350   1.284674   0.013768   0.010661   0.024429   0.000000  -0.580726  -0.000000   0.000000  -0.000000    9.4000     0.2764
    6.400   1.288345   0.013849   0.010725   0.024574   0.000000  -0.582107  -0.000000   0.000000  -0.000000    9.4000     0.2759
    6.450   1.291987   0.013929   0.010791   0.024720   0.000000  -0.583470  -0.000000   0.000000  -0.000000    9.4000     0.2755
    6.500   1.295630   0.014009   0.010857   0.024866   0.000000  -0.584836  -0.000000   0.000000  -0.000000    9.4000     0.2750
    6.550   1.299274   0.014089   0.010922   0.025011   0.000000  -0.586206  -0.000000   0.000000  -0.000000    9.4000     0.2746
    6.600   1.302892   0.014168   0.010989   0.025157   0.000000  -0.587565  -0.000000   0.000000  -0.000000    9.4000     0.2742
    6.650   1.306244   0.014244   0.011067   0.025311   0.000000  -0.588789  -0.000000   0.000000  -0.000000    9.4000     0.2737
    6.700   1.309449   0.014316   0.011151   0.025467   0.000000  -0.589941  -0.000000   0.000000  -0.000000    9.4000     0.2733
    6.750   1.312652   0.014388   0.011235   0.025623   0.000000  -0.591093  -0.000000   0.000000  -0.000000    9.4000     0.2728
    6.800   1.315855   0.014459   0.011319   0.025778   0.000000  -0.592247  -0.000000   0.000000  -0.000000    9.4000     0.2724
    6.850   1.319059   0.014531   0.011403   0.025934   0.000000  -0.593404  -0.000000   0.000000  -0.000000    9.4000     0.2720
    6.900   1.322255   0.014602   0.011488   0.026090   0.000000  -0.594559  -0.000000   0.000000  -0.000000    9.4000     0.2715
    6.950   1.325432   0.014674   0.011573   0.026247   0.000000  -0.595704  -0.000000   0.000000  -0.000000    9.4000     0.2711
    7.000   1.328598   0.014745   0.011659   0.026404   0.000000  -0.596844  -0.000000   0.000000  -0.000000    9.4000     0.2707
    7.050   1.331765   0.014816   0.011745   0.026562   0.000000  -0.597987  -0.000000   0.000000  -0.000000    9.4000     0.2702
    7.100   1.334933   0.014888   0.011831   0.026719   0.000000  -0.599133  -0.000000   0.000000  -0.000000    9.4000     0.2698
    7.150   1.337989   0.014958   0.011922   0.026880   0.000000  -0.600232  -0.000000   0.000000  -0.000000    9.4000     0.2694
    7.200   1.340953   0.015026   0.012017   0.027043   0.000000  -0.601294  -0.000000   0.000000  -0.000000    9.4000     0.2689
    7.250   1.343873   0.015094   0.012114   0.027208   0.000000  -0.602334  -0.000000   0.000000  -0.000000    9.4000     0.2685
    7.300   1.346800   0.015161   0.012210   0.027371   0.000000  -0.603381  -0.000000   0.000000  -0.000000    9.4000     0.2681
    7.350   1.349726   0.015228   0.012306   0.027534   0.000000  -0.604428  -0.000000   0.000000  -0.000000    9.4000     0.2677
    7.400   1.352648   0.015296   0.012402   0.027699   0.000000  -0.605475  -0.000000   0.000000  -0.000000    9.4000     0.2672
    7.450   1.355569   0.015363   0.012499   0.027862   0.000000  -0.606523  -0.000000   0.000000  -0.000000    9.4000     0.2668
    7.500   1.358479   0.015431   0.012597   0.028028   0.000000  -0.607567  -0.000000   0.000000  -0.000000    9.4000     0.2664
    7.550   1.361393   0.015498   0.012695   0.028193   0.000000  -0.608614  -0.000000   0.000000  -0.000000    9.4000     0.2660
    7.600   1.364302   0.015566   0.012793   0.028359   0.000000  -0.609661  -0.000000   0.000000  -0.000000    9.4000     0.2656
    7.650   1.367140   0.015632   0.012896   0.028528   0.000000  -0.610682  -0.000000   0.000000  -0.000000    9.4000     0.2651
    7.700   1.369897   0.015698   0.013006   0.028704   0.000000  -0.611675  -0.000000   0.000000  -0.000000    9.4000     0.2647
    7.750   1.372614   0.015762   0.013118   0.028881   0.000000  -0.612653  -0.000000   0.000000  -0.000000    9.4000     0.2643
    7.800   1.375325   0.015825   0.013232   0.029057   0.000000  -0.613627   0.000000   0.000000  -0.000000    9.4000     0.2639
    7.850   1.378034   0.015888   0.013345   0.029234   0.000000  -0.614603  -0.000000   0.000000  -0.000000    9.4000     0.2635
    7.900   1.380741   0.015952   0.013458   0.029411   0.000000  -0.615580  -0.000000   0.000000  -0.000000    9.4000     0.2631
    7.950   1.383427   0.016016   0.013573   0.029589   0.000000  -0.616544  -0.000000   0.000000  -0.000000    9.4000     0.2627
    8.000   1.386103   0.016079   0.013689   0.029768   0.000000  -0.617504   0.000000   0.000000  -0.000000    9.4000     0.2623


