XFLR5 v6.06

 Calculated polar for: foilb

 1 1 Reynolds number fixed          Mach number fixed         

 xtrf =   1.000 (top)        1.000 (bottom)
 Mach =   0.000     Re =     0.400 e 6     Ncrit =   9.000

  alpha     CL        CD       CDp       Cm    Top Xtr Bot Xtr   Cpmin    Chinge    XCp    
 ------- -------- --------- --------- -------- ------- ------- -------- --------- ---------
  -7.000  -0.3184   0.02734   0.02321  -0.1128  0.9588  0.0174  -4.5760   0.0000  -0.1149
  -6.500  -0.2638   0.02055   0.01533  -0.1159  0.9515  0.0173  -4.4960   0.0000  -0.2015
  -6.000  -0.1934   0.01751   0.01172  -0.1197  0.9487  0.0189  -4.0363   0.0000  -0.3836
  -5.500  -0.1336   0.01533   0.00935  -0.1213  0.9422  0.0230  -3.5972   0.0000  -0.6774
  -5.000  -0.0622   0.01348   0.00733  -0.1250  0.9389  0.0306  -3.1587   0.0000  -1.7971
  -4.500   0.0072   0.01226   0.00606  -0.1281  0.9347  0.0465  -2.6445   0.0000  18.3068
  -4.000   0.0759   0.01116   0.00506  -0.1311  0.9296  0.0917  -2.1315   0.0000   1.9990
  -3.500   0.1524   0.01025   0.00435  -0.1357  0.9270  0.1601  -1.6144   0.0000   1.1503
  -3.000   0.2158   0.00955   0.00390  -0.1375  0.9188  0.2459  -1.2051   0.0000   0.8930
  -2.500   0.2836   0.00890   0.00348  -0.1402  0.9120  0.3438  -0.8406   0.0000   0.7479
  -2.000   0.3515   0.00831   0.00314  -0.1428  0.9043  0.4459  -0.5968   0.0000   0.6583
  -1.500   0.4128   0.00788   0.00295  -0.1438  0.8931  0.5489  -0.5535   0.0000   0.5996
  -1.000   0.4695   0.00758   0.00286  -0.1438  0.8792  0.6423  -0.5893   0.0000   0.5566
  -0.500   0.5249   0.00734   0.00282  -0.1432  0.8639  0.7303  -0.6284   0.0000   0.5227
   0.000   0.5794   0.00716   0.00277  -0.1424  0.8483  0.8085  -0.6699   0.0000   0.4949
   0.500   0.6249   0.00705   0.00277  -0.1394  0.8290  0.8812  -0.7122   0.0000   0.4718
   1.000   0.6747   0.00687   0.00263  -0.1374  0.8093  0.9762  -0.7635   0.0000   0.4518
   1.500   0.7335   0.00696   0.00261  -0.1380  0.7872  1.0000  -0.8280   0.0000   0.4358
   2.000   0.7881   0.00711   0.00265  -0.1377  0.7620  1.0000  -0.8976   0.0000   0.4219
   2.500   0.8418   0.00732   0.00275  -0.1371  0.7349  1.0000  -0.9859   0.0000   0.4096
   3.000   0.8933   0.00757   0.00291  -0.1362  0.7037  1.0000  -1.0842   0.0000   0.3986
   3.500   0.9434   0.00789   0.00312  -0.1349  0.6682  1.0000  -1.2003   0.0000   0.3887
   4.000   0.9915   0.00828   0.00341  -0.1332  0.6263  1.0000  -1.3391   0.0000   0.3795
   4.500   1.0375   0.00878   0.00377  -0.1312  0.5789  1.0000  -1.5103   0.0000   0.3711
   5.000   1.0811   0.00941   0.00421  -0.1288  0.5233  1.0000  -1.7267   0.0000   0.3632
   5.500   1.1218   0.01021   0.00478  -0.1259  0.4592  1.0000  -2.1200   0.0000   0.3557
   6.000   1.1596   0.01121   0.00548  -0.1226  0.3853  1.0000  -2.5363   0.0000   0.3487
   6.500   1.1951   0.01241   0.00635  -0.1192  0.3066  1.0000  -2.9942   0.0000   0.3420
   7.000   1.2292   0.01377   0.00736  -0.1156  0.2309  1.0000  -3.4679   0.0000   0.3357
   7.500   1.2606   0.01521   0.00848  -0.1116  0.1647  1.0000  -3.9475   0.0000   0.3296
   8.000   1.2890   0.01684   0.00979  -0.1073  0.1059  1.0000  -4.4285   0.0000   0.3237


