XFLR5 v6.06

 Calculated polar for: foilb

 1 1 Reynolds number fixed          Mach number fixed         

 xtrf =   1.000 (top)        1.000 (bottom)
 Mach =   0.000     Re =     0.100 e 6     Ncrit =   9.000

  alpha     CL        CD       CDp       Cm    Top Xtr Bot Xtr   Cpmin    Chinge    XCp    
 ------- -------- --------- --------- -------- ------- ------- -------- --------- ---------
  -8.000  -0.4174   0.10338   0.09898  -0.0320  1.0000  0.1026  -1.8880   0.0000   0.1668
  -7.500  -0.4075   0.09710   0.09276  -0.0272  1.0000  0.1069  -1.7952   0.0000   0.1771
  -7.000  -0.4366   0.09396   0.08980  -0.0228  1.0000  0.1114  -1.8539   0.0000   0.1925
  -6.500  -0.4117   0.08730   0.08352  -0.0178  1.0000  0.1190  -1.6994   0.0000   0.2032
  -6.000  -0.4647   0.08311   0.07918  -0.0229  1.0000  0.1218  -1.9434   0.0000   0.1967
  -5.500  -0.4634   0.07565   0.07176  -0.0273  1.0000  0.1295  -1.9829   0.0000   0.1875
  -5.000  -0.4472   0.06760   0.06364  -0.0334  1.0000  0.1414  -1.9925   0.0000   0.1719
  -4.500  -0.4100   0.05884   0.05456  -0.0445  1.0000  0.1700  -1.9857   0.0000   0.1382
  -4.000  -0.2675   0.02854   0.02028  -0.0728  1.0000  0.0703  -2.9170   0.0000  -0.0289
  -3.500  -0.2149   0.02573   0.01721  -0.0735  1.0000  0.0857  -2.6781   0.0000  -0.0997
  -3.000  -0.1436   0.02388   0.01520  -0.0771  0.9952  0.1198  -2.3502   0.0000  -0.2968
  -2.500  -0.0618   0.02290   0.01452  -0.0833  0.9846  0.2184  -1.9063   0.0000  -1.1167
  -2.000   0.0147   0.02240   0.01463  -0.0885  0.9726  0.3720  -1.4801   0.0000   6.3228
  -1.500   0.0861   0.02221   0.01515  -0.0919  0.9600  0.5692  -1.0741   0.0000   1.3262
  -1.000   0.1420   0.02215   0.01566  -0.0909  0.9456  0.7776  -0.7945   0.0000   0.8940
  -0.500   0.2041   0.02202   0.01547  -0.0921  0.9285  1.0000  -0.5789   0.0000   0.7027
   0.000   0.2828   0.02264   0.01565  -0.0976  0.9137  1.0000  -0.4896   0.0000   0.5950
   0.500   0.3526   0.02315   0.01588  -0.1011  0.8964  1.0000  -0.5350   0.0000   0.5357
   1.000   0.4322   0.02347   0.01599  -0.1058  0.8820  1.0000  -0.5921   0.0000   0.4933
   1.500   0.4971   0.02378   0.01620  -0.1079  0.8627  1.0000  -0.6468   0.0000   0.4648
   2.000   0.5787   0.02361   0.01597  -0.1122  0.8484  1.0000  -0.7201   0.0000   0.4412
   2.500   0.6451   0.02353   0.01592  -0.1138  0.8286  1.0000  -0.7927   0.0000   0.4232
   3.000   0.7328   0.02251   0.01501  -0.1181  0.8150  1.0000  -0.8991   0.0000   0.4076
   3.500   0.8069   0.02176   0.01438  -0.1201  0.7950  1.0000  -1.0137   0.0000   0.3948
   4.000   0.8851   0.02061   0.01343  -0.1223  0.7743  1.0000  -1.1592   0.0000   0.3836
   4.500   0.9634   0.01937   0.01239  -0.1242  0.7495  1.0000  -1.3414   0.0000   0.3738
   5.000   1.0319   0.01850   0.01170  -0.1245  0.7160  1.0000  -1.5636   0.0000   0.3650
   5.500   1.0915   0.01802   0.01132  -0.1233  0.6725  1.0000  -1.8902   0.0000   0.3567
   6.000   1.1433   0.01795   0.01131  -0.1209  0.6190  1.0000  -2.3394   0.0000   0.3489
   6.500   1.1861   0.01833   0.01162  -0.1172  0.5534  1.0000  -2.7814   0.0000   0.3413
   7.000   1.2184   0.01923   0.01237  -0.1120  0.4744  1.0000  -3.2257   0.0000   0.3337
   7.500   1.2412   0.02072   0.01354  -0.1057  0.3850  1.0000  -3.6347   0.0000   0.3263
   8.000   1.2551   0.02288   0.01527  -0.0985  0.2939  1.0000  -4.0012   0.0000   0.3190


