XFLR5 v6.06

 Calculated polar for: foilb

 1 1 Reynolds number fixed          Mach number fixed         

 xtrf =   1.000 (top)        1.000 (bottom)
 Mach =   0.000     Re =     0.250 e 6     Ncrit =   9.000

  alpha     CL        CD       CDp       Cm    Top Xtr Bot Xtr   Cpmin    Chinge    XCp    
 ------- -------- --------- --------- -------- ------- ------- -------- --------- ---------
  -8.000  -0.3360   0.08847   0.08579  -0.0375  0.9934  0.0439  -1.8604   0.0000   0.1319
  -7.500  -0.3220   0.07843   0.07576  -0.0464  0.9860  0.0477  -1.9372   0.0000   0.0994
  -7.000  -0.3868   0.07727   0.07454  -0.0479  0.9826  0.0461  -2.2235   0.0000   0.1194
  -6.500  -0.3413   0.05455   0.05152  -0.0838  0.9685  0.0516  -2.6927   0.0000  -0.0029
  -6.000  -0.2922   0.04516   0.04177  -0.0936  0.9590  0.0554  -2.6112   0.0000  -0.0782
  -5.000  -0.1523   0.01901   0.01217  -0.1090  0.9489  0.0331  -3.3386   0.0000  -0.4815
  -4.500  -0.0879   0.01725   0.01034  -0.1114  0.9415  0.0449  -2.9268   0.0000  -1.0405
  -4.000  -0.0113   0.01577   0.00883  -0.1159  0.9375  0.0716  -2.4364   0.0000  -10.1670
  -3.500   0.0534   0.01466   0.00791  -0.1182  0.9291  0.1349  -1.9647   0.0000   2.4935
  -2.500   0.1980   0.01295   0.00683  -0.1257  0.9166  0.3461  -1.0775   0.0000   0.8903
  -2.000   0.2652   0.01228   0.00649  -0.1281  0.9085  0.4671  -0.7627   0.0000   0.7361
  -1.500   0.3449   0.01146   0.00603  -0.1327  0.9048  0.6014  -0.5166   0.0000   0.6363
  -1.000   0.4078   0.01091   0.00577  -0.1335  0.8952  0.7119  -0.5552   0.0000   0.5780
  -0.500   0.4671   0.01040   0.00548  -0.1332  0.8849  0.8119  -0.5954   0.0000   0.5350
   0.000   0.5170   0.00989   0.00511  -0.1305  0.8729  0.9085  -0.6340   0.0000   0.5017
   0.500   0.5907   0.00944   0.00459  -0.1337  0.8607  1.0000  -0.6901   0.0000   0.4750
   1.000   0.6531   0.00933   0.00437  -0.1349  0.8440  1.0000  -0.7472   0.0000   0.4548
   1.500   0.7163   0.00924   0.00417  -0.1361  0.8265  1.0000  -0.8130   0.0000   0.4378
   2.000   0.7738   0.00924   0.00410  -0.1362  0.8049  1.0000  -0.8838   0.0000   0.4232
   2.500   0.8307   0.00929   0.00408  -0.1360  0.7810  1.0000  -0.9721   0.0000   0.4105
   3.000   0.8837   0.00943   0.00419  -0.1351  0.7528  1.0000  -1.0700   0.0000   0.3992
   3.500   0.9366   0.00961   0.00431  -0.1342  0.7218  1.0000  -1.1874   0.0000   0.3891
   4.000   0.9867   0.00988   0.00453  -0.1328  0.6851  1.0000  -1.3273   0.0000   0.3798
   4.500   1.0348   0.01026   0.00482  -0.1309  0.6435  1.0000  -1.4979   0.0000   0.3712
   5.000   1.0798   0.01075   0.00521  -0.1285  0.5944  1.0000  -1.7092   0.0000   0.3631
   5.500   1.1215   0.01141   0.00573  -0.1256  0.5369  1.0000  -2.0974   0.0000   0.3555
   6.000   1.1591   0.01229   0.00638  -0.1220  0.4698  1.0000  -2.4998   0.0000   0.3482
   6.500   1.1920   0.01343   0.00724  -0.1178  0.3929  1.0000  -2.9399   0.0000   0.3411
   7.000   1.2212   0.01483   0.00830  -0.1132  0.3110  1.0000  -3.3821   0.0000   0.3344
   7.500   1.2470   0.01643   0.00955  -0.1082  0.2331  1.0000  -3.8224   0.0000   0.3278
   8.000   1.2710   0.01824   0.01104  -0.1032  0.1637  1.0000  -4.2655   0.0000   0.3216


