XFLR5 v6.06

 Calculated polar for: foilb

 1 1 Reynolds number fixed          Mach number fixed         

 xtrf =   1.000 (top)        1.000 (bottom)
 Mach =   0.000     Re =     0.200 e 6     Ncrit =   9.000

  alpha     CL        CD       CDp       Cm    Top Xtr Bot Xtr   Cpmin    Chinge    XCp    
 ------- -------- --------- --------- -------- ------- ------- -------- --------- ---------
  -6.500  -0.3967   0.06412   0.06099  -0.0671  0.9792  0.0608  -2.5971   0.0000   0.0748
  -6.000  -0.3535   0.05802   0.05483  -0.0714  0.9703  0.0646  -2.3698   0.0000   0.0420
  -5.500  -0.2957   0.04554   0.04180  -0.0868  0.9603  0.0757  -2.3984   0.0000  -0.0505
  -5.000  -0.2059   0.02264   0.01571  -0.1002  0.9594  0.0361  -3.3487   0.0000  -0.2482
  -4.500  -0.1389   0.02033   0.01308  -0.1029  0.9519  0.0461  -3.0191   0.0000  -0.5056
  -4.000  -0.0650   0.01859   0.01125  -0.1069  0.9462  0.0667  -2.5897   0.0000  -1.4233
  -3.500   0.0056   0.01712   0.00992  -0.1104  0.9387  0.1193  -2.1369   0.0000  20.3938
  -3.000   0.0737   0.01624   0.00933  -0.1135  0.9297  0.2097  -1.6787   0.0000   1.8091
  -2.500   0.1432   0.01551   0.00896  -0.1168  0.9213  0.3298  -1.2540   0.0000   1.0732
  -2.000   0.2207   0.01472   0.00856  -0.1213  0.9155  0.4712  -0.8563   0.0000   0.8034
  -1.500   0.2854   0.01414   0.00838  -0.1229  0.9057  0.6075  -0.6186   0.0000   0.6826
  -1.000   0.3482   0.01358   0.00815  -0.1235  0.8960  0.7337  -0.5224   0.0000   0.6055
  -0.500   0.4043   0.01296   0.00779  -0.1220  0.8862  0.8528  -0.5600   0.0000   0.5519
   1.000   0.6228   0.01151   0.00609  -0.1307  0.8546  1.0000  -0.7256   0.0000   0.4581
   1.500   0.6913   0.01120   0.00571  -0.1327  0.8397  1.0000  -0.7929   0.0000   0.4398
   2.000   0.7545   0.01101   0.00546  -0.1337  0.8214  1.0000  -0.8666   0.0000   0.4245
   2.500   0.8157   0.01088   0.00530  -0.1343  0.8001  1.0000  -0.9553   0.0000   0.4114
   3.000   0.8726   0.01086   0.00526  -0.1340  0.7745  1.0000  -1.0553   0.0000   0.3998
   3.500   0.9295   0.01090   0.00525  -0.1336  0.7463  1.0000  -1.1751   0.0000   0.3895
   4.000   0.9817   0.01106   0.00539  -0.1324  0.7125  1.0000  -1.3165   0.0000   0.3801
   4.500   1.0304   0.01133   0.00563  -0.1305  0.6716  1.0000  -1.4842   0.0000   0.3714
   5.000   1.0774   0.01173   0.00598  -0.1283  0.6257  1.0000  -1.6969   0.0000   0.3633
   5.500   1.1206   0.01229   0.00644  -0.1255  0.5717  1.0000  -2.0797   0.0000   0.3556
   6.000   1.1593   0.01308   0.00704  -0.1220  0.5072  1.0000  -2.4846   0.0000   0.3482
   6.500   1.1930   0.01412   0.00786  -0.1177  0.4330  1.0000  -2.9212   0.0000   0.3410
   7.000   1.2208   0.01550   0.00890  -0.1127  0.3503  1.0000  -3.3537   0.0000   0.3340
   7.500   1.2442   0.01716   0.01021  -0.1072  0.2680  1.0000  -3.7782   0.0000   0.3273
   8.000   1.2641   0.01909   0.01179  -0.1015  0.1928  1.0000  -4.1930   0.0000   0.3207


