XFLR5 v6.06

 Calculated polar for: foilb

 1 1 Reynolds number fixed          Mach number fixed         

 xtrf =   1.000 (top)        1.000 (bottom)
 Mach =   0.000     Re =     0.150 e 6     Ncrit =   9.000

  alpha     CL        CD       CDp       Cm    Top Xtr Bot Xtr   Cpmin    Chinge    XCp    
 ------- -------- --------- --------- -------- ------- ------- -------- --------- ---------
  -8.000  -0.3786   0.09777   0.09441  -0.0297  1.0000  0.0698  -1.8417   0.0000   0.1661
  -7.500  -0.4258   0.09377   0.09060  -0.0283  1.0000  0.0702  -2.0531   0.0000   0.1789
  -6.000  -0.4417   0.06798   0.06453  -0.0514  0.9915  0.0818  -2.4177   0.0000   0.1289
  -5.500  -0.3903   0.05952   0.05593  -0.0602  0.9819  0.0940  -2.2642   0.0000   0.0909
  -5.000  -0.3270   0.04918   0.04516  -0.0729  0.9723  0.1066  -2.1944   0.0000   0.0217
  -4.000  -0.1444   0.02243   0.01458  -0.0938  0.9659  0.0643  -2.7789   0.0000  -0.4123
  -3.500  -0.0690   0.02073   0.01287  -0.0981  0.9585  0.0974  -2.3644   0.0000  -1.1945
  -3.000   0.0028   0.01952   0.01191  -0.1021  0.9491  0.1795  -1.9094   0.0000  37.6499
  -2.500   0.0736   0.01876   0.01158  -0.1060  0.9391  0.3014  -1.4809   0.0000   1.7045
  -2.000   0.1432   0.01819   0.01148  -0.1092  0.9286  0.4498  -1.0728   0.0000   1.0188
  -1.500   0.2092   0.01774   0.01152  -0.1111  0.9178  0.6090  -0.7668   0.0000   0.7843
  -1.000   0.2684   0.01734   0.01152  -0.1108  0.9063  0.7611  -0.5538   0.0000   0.6643
  -0.500   0.3245   0.01667   0.01109  -0.1091  0.8944  1.0000  -0.5137   0.0000   0.5867
   0.000   0.4019   0.01655   0.01067  -0.1137  0.8833  1.0000  -0.5635   0.0000   0.5324
   0.500   0.4778   0.01628   0.01022  -0.1175  0.8722  1.0000  -0.6166   0.0000   0.4948
   1.000   0.5553   0.01583   0.00965  -0.1213  0.8613  1.0000  -0.6780   0.0000   0.4668
   1.500   0.6332   0.01530   0.00906  -0.1250  0.8498  1.0000  -0.7480   0.0000   0.4452
   2.000   0.7104   0.01467   0.00841  -0.1283  0.8373  1.0000  -0.8278   0.0000   0.4279
   2.500   0.7745   0.01431   0.00808  -0.1292  0.8182  1.0000  -0.9115   0.0000   0.4136
   3.000   0.8415   0.01387   0.00767  -0.1304  0.7979  1.0000  -1.0169   0.0000   0.4013
   3.500   0.9048   0.01355   0.00739  -0.1309  0.7733  1.0000  -1.1379   0.0000   0.3905
   4.000   0.9643   0.01338   0.00726  -0.1307  0.7439  1.0000  -1.2849   0.0000   0.3808
   4.500   1.0183   0.01338   0.00728  -0.1295  0.7079  1.0000  -1.4533   0.0000   0.3719
   5.000   1.0697   0.01354   0.00743  -0.1278  0.6654  1.0000  -1.6673   0.0000   0.3636
   5.500   1.1158   0.01390   0.00778  -0.1252  0.6144  1.0000  -2.0368   0.0000   0.3558
   6.000   1.1576   0.01450   0.00826  -0.1219  0.5544  1.0000  -2.4521   0.0000   0.3483
   6.500   1.1928   0.01539   0.00897  -0.1176  0.4831  1.0000  -2.8838   0.0000   0.3410
   7.000   1.2215   0.01664   0.00997  -0.1125  0.4016  1.0000  -3.3168   0.0000   0.3338
   7.500   1.2431   0.01833   0.01128  -0.1065  0.3147  1.0000  -3.7272   0.0000   0.3268
   8.000   1.2587   0.02037   0.01294  -0.0999  0.2328  1.0000  -4.1125   0.0000   0.3198


