XFLR5 v6.06

 Calculated polar for: foilb

 1 1 Reynolds number fixed          Mach number fixed         

 xtrf =   1.000 (top)        1.000 (bottom)
 Mach =   0.000     Re =     0.300 e 6     Ncrit =   9.000

  alpha     CL        CD       CDp       Cm    Top Xtr Bot Xtr   Cpmin    Chinge    XCp    
 ------- -------- --------- --------- -------- ------- ------- -------- --------- ---------
  -5.500  -0.1814   0.01887   0.01250  -0.1129  0.9488  0.0259  -3.6460   0.0000  -0.3866
  -5.000  -0.1190   0.01681   0.01027  -0.1146  0.9417  0.0314  -3.2806   0.0000  -0.7325
  -4.500  -0.0452   0.01506   0.00844  -0.1188  0.9381  0.0457  -2.8080   0.0000  -2.4209
  -4.000   0.0194   0.01384   0.00726  -0.1210  0.9307  0.0763  -2.3395   0.0000   6.5691
  -3.500   0.0955   0.01276   0.00636  -0.1255  0.9272  0.1479  -1.8107   0.0000   1.5800
  -3.000   0.1613   0.01197   0.00585  -0.1279  0.9194  0.2378  -1.3845   0.0000   1.0511
  -2.500   0.2403   0.01108   0.00528  -0.1329  0.9163  0.3536  -0.9446   0.0000   0.8074
  -2.000   0.3062   0.01045   0.00493  -0.1351  0.9081  0.4651  -0.6787   0.0000   0.6936
  -1.000   0.4441   0.00922   0.00427  -0.1398  0.8931  0.6894  -0.5750   0.0000   0.5652
  -0.500   0.5017   0.00885   0.00410  -0.1394  0.8809  0.7812  -0.6149   0.0000   0.5277
   0.000   0.5495   0.00858   0.00399  -0.1367  0.8650  0.8636  -0.6525   0.0000   0.4980
   0.500   0.6009   0.00821   0.00367  -0.1346  0.8497  0.9602  -0.6976   0.0000   0.4727
   1.000   0.6661   0.00814   0.00350  -0.1366  0.8317  1.0000  -0.7567   0.0000   0.4532
   1.500   0.7253   0.00817   0.00341  -0.1371  0.8119  1.0000  -0.8207   0.0000   0.4368
   2.000   0.7815   0.00825   0.00340  -0.1370  0.7890  1.0000  -0.8910   0.0000   0.4225
   2.500   0.8356   0.00838   0.00346  -0.1364  0.7629  1.0000  -0.9783   0.0000   0.4100
   3.000   0.8893   0.00857   0.00356  -0.1358  0.7344  1.0000  -1.0779   0.0000   0.3989
   3.500   0.9406   0.00882   0.00374  -0.1346  0.7017  1.0000  -1.1944   0.0000   0.3889
   4.000   0.9893   0.00915   0.00400  -0.1330  0.6626  1.0000  -1.3333   0.0000   0.3796
   4.500   1.0364   0.00958   0.00433  -0.1310  0.6193  1.0000  -1.5041   0.0000   0.3711
   5.000   1.0807   0.01013   0.00475  -0.1286  0.5683  1.0000  -1.7157   0.0000   0.3631
   5.500   1.1213   0.01087   0.00529  -0.1256  0.5074  1.0000  -2.1062   0.0000   0.3555
   6.000   1.1588   0.01180   0.00597  -0.1221  0.4385  1.0000  -2.5129   0.0000   0.3483
   6.500   1.1920   0.01298   0.00684  -0.1181  0.3593  1.0000  -2.9564   0.0000   0.3414
   7.000   1.2231   0.01438   0.00789  -0.1139  0.2798  1.0000  -3.4103   0.0000   0.3348
   7.500   1.2512   0.01592   0.00910  -0.1093  0.2049  1.0000  -3.8665   0.0000   0.3285
   8.000   1.2779   0.01763   0.01051  -0.1048  0.1418  1.0000  -4.3295   0.0000   0.3224


