XFLR5 v6.06

 Calculated polar for: foilb

 1 1 Reynolds number fixed          Mach number fixed         

 xtrf =   1.000 (top)        1.000 (bottom)
 Mach =   0.000     Re =     0.450 e 6     Ncrit =   9.000

  alpha     CL        CD       CDp       Cm    Top Xtr Bot Xtr   Cpmin    Chinge    XCp    
 ------- -------- --------- --------- -------- ------- ------- -------- --------- ---------
  -7.000  -0.3043   0.02197   0.01709  -0.1170  0.9557  0.0149  -5.0129   0.0000  -0.1460
  -6.500  -0.2438   0.01802   0.01266  -0.1199  0.9506  0.0160  -4.5828   0.0000  -0.2549
  -6.000  -0.1730   0.01577   0.01009  -0.1237  0.9483  0.0181  -4.0116   0.0000  -0.4818
  -5.500  -0.1138   0.01396   0.00810  -0.1250  0.9415  0.0220  -3.5807   0.0000  -0.8706
  -5.000  -0.0414   0.01237   0.00637  -0.1288  0.9388  0.0304  -3.1024   0.0000  -2.9131
  -4.500   0.0346   0.01121   0.00517  -0.1334  0.9372  0.0486  -2.5440   0.0000   4.1570
  -4.000   0.0963   0.01025   0.00436  -0.1349  0.9297  0.0958  -2.0526   0.0000   1.6685
  -3.500   0.1703   0.00942   0.00370  -0.1389  0.9264  0.1613  -1.5536   0.0000   1.0748
  -3.000   0.2320   0.00879   0.00329  -0.1404  0.9174  0.2433  -1.1534   0.0000   0.8605
  -2.500   0.2949   0.00824   0.00296  -0.1420  0.9082  0.3348  -0.8174   0.0000   0.7350
  -2.000   0.3571   0.00778   0.00271  -0.1434  0.8978  0.4293  -0.5869   0.0000   0.6537
  -1.500   0.4174   0.00740   0.00256  -0.1443  0.8857  0.5290  -0.5562   0.0000   0.5968
  -1.000   0.4761   0.00711   0.00246  -0.1447  0.8723  0.6222  -0.5931   0.0000   0.5544
  -0.500   0.5313   0.00690   0.00244  -0.1443  0.8565  0.7089  -0.6322   0.0000   0.5213
   0.000   0.5843   0.00677   0.00245  -0.1432  0.8392  0.7866  -0.6729   0.0000   0.4943
   0.500   0.6330   0.00668   0.00248  -0.1411  0.8200  0.8579  -0.7170   0.0000   0.4716
   1.000   0.6754   0.00657   0.00244  -0.1375  0.7996  0.9346  -0.7643   0.0000   0.4517
   1.500   0.7356   0.00658   0.00237  -0.1383  0.7767  1.0000  -0.8299   0.0000   0.4356
   2.000   0.7899   0.00675   0.00244  -0.1379  0.7509  1.0000  -0.8994   0.0000   0.4218
   2.500   0.8430   0.00698   0.00254  -0.1373  0.7227  1.0000  -0.9876   0.0000   0.4095
   3.000   0.8944   0.00725   0.00271  -0.1363  0.6911  1.0000  -1.0860   0.0000   0.3986
   3.500   0.9440   0.00759   0.00293  -0.1350  0.6534  1.0000  -1.2018   0.0000   0.3886
   4.000   0.9919   0.00801   0.00322  -0.1333  0.6110  1.0000  -1.3406   0.0000   0.3795
   4.500   1.0379   0.00852   0.00359  -0.1313  0.5621  1.0000  -1.5124   0.0000   0.3711
   5.000   1.0812   0.00918   0.00404  -0.1289  0.5038  1.0000  -1.7309   0.0000   0.3633
   5.500   1.1222   0.01000   0.00462  -0.1261  0.4388  1.0000  -2.1259   0.0000   0.3559
   6.000   1.1606   0.01102   0.00533  -0.1230  0.3629  1.0000  -2.5482   0.0000   0.3489
   6.500   1.1973   0.01221   0.00619  -0.1198  0.2861  1.0000  -3.0132   0.0000   0.3424
   7.000   1.2323   0.01356   0.00718  -0.1164  0.2123  1.0000  -3.4931   0.0000   0.3362
   7.500   1.2641   0.01500   0.00828  -0.1125  0.1471  1.0000  -3.9778   0.0000   0.3301
   8.000   1.2937   0.01655   0.00953  -0.1084  0.0927  1.0000  -4.4686   0.0000   0.3242


