XFLR5 v6.06

 Calculated polar for: foilb

 1 1 Reynolds number fixed          Mach number fixed         

 xtrf =   1.000 (top)        1.000 (bottom)
 Mach =   0.000     Re =     0.550 e 6     Ncrit =   9.000

  alpha     CL        CD       CDp       Cm    Top Xtr Bot Xtr   Cpmin    Chinge    XCp    
 ------- -------- --------- --------- -------- ------- ------- -------- --------- ---------
  -8.000  -0.3664   0.04183   0.03949  -0.1051  0.9699  0.0155  -4.5734   0.0000  -0.0476
  -7.500  -0.2866   0.02617   0.02356  -0.1143  0.9598  0.0207  -3.8704   0.0000  -0.1593
  -6.500  -0.2119   0.01592   0.01065  -0.1258  0.9500  0.0143  -4.5464   0.0000  -0.3588
  -6.000  -0.1418   0.01342   0.00790  -0.1298  0.9482  0.0165  -4.0018   0.0000  -0.6856
  -5.000  -0.0097   0.01078   0.00502  -0.1349  0.9391  0.0302  -3.0054   0.0000  -13.8253
  -4.000   0.1230   0.00900   0.00339  -0.1398  0.9283  0.0983  -1.9497   0.0000   1.4008
  -3.500   0.1857   0.00839   0.00292  -0.1415  0.9199  0.1556  -1.5026   0.0000   1.0197
  -3.000   0.2488   0.00785   0.00256  -0.1432  0.9110  0.2299  -1.1007   0.0000   0.8305
  -2.500   0.3097   0.00738   0.00229  -0.1444  0.9003  0.3171  -0.7873   0.0000   0.7195
  -2.000   0.3685   0.00702   0.00211  -0.1451  0.8878  0.4032  -0.5670   0.0000   0.6458
  -1.500   0.4262   0.00672   0.00201  -0.1455  0.8740  0.4958  -0.5612   0.0000   0.5925
  -1.000   0.4837   0.00649   0.00194  -0.1458  0.8597  0.5871  -0.5975   0.0000   0.5517
  -0.500   0.5375   0.00632   0.00196  -0.1452  0.8420  0.6715  -0.6359   0.0000   0.5198
   0.000   0.5915   0.00622   0.00198  -0.1445  0.8244  0.7493  -0.6772   0.0000   0.4934
   0.500   0.6425   0.00616   0.00205  -0.1431  0.8045  0.8207  -0.7230   0.0000   0.4713
   1.000   0.6890   0.00613   0.00211  -0.1406  0.7825  0.8884  -0.7730   0.0000   0.4521
   1.500   0.7379   0.00605   0.00205  -0.1385  0.7585  0.9893  -0.8321   0.0000   0.4353
   2.000   0.7921   0.00624   0.00214  -0.1382  0.7319  1.0000  -0.9016   0.0000   0.4216
   2.500   0.8446   0.00649   0.00226  -0.1375  0.7019  1.0000  -0.9899   0.0000   0.4095
   3.000   0.8956   0.00679   0.00244  -0.1365  0.6682  1.0000  -1.0882   0.0000   0.3986
   3.500   0.9448   0.00716   0.00267  -0.1351  0.6273  1.0000  -1.2037   0.0000   0.3887
   4.000   0.9926   0.00761   0.00297  -0.1335  0.5829  1.0000  -1.3429   0.0000   0.3796
   4.500   1.0385   0.00816   0.00335  -0.1315  0.5321  1.0000  -1.5154   0.0000   0.3713
   5.000   1.0820   0.00886   0.00381  -0.1292  0.4701  1.0000  -1.7395   0.0000   0.3635
   5.500   1.1239   0.00970   0.00439  -0.1267  0.4028  1.0000  -2.1391   0.0000   0.3562
   6.000   1.1631   0.01076   0.00510  -0.1239  0.3252  1.0000  -2.5708   0.0000   0.3494
   6.500   1.2017   0.01191   0.00593  -0.1210  0.2516  1.0000  -3.0474   0.0000   0.3430
   7.000   1.2380   0.01322   0.00689  -0.1179  0.1814  1.0000  -3.5380   0.0000   0.3369
   7.500   1.2705   0.01466   0.00796  -0.1141  0.1171  1.0000  -4.0309   0.0000   0.3309
   8.000   1.3028   0.01600   0.00910  -0.1103  0.0758  1.0000  -4.5417   0.0000   0.3251


