XFLR5 v6.06

 Calculated polar for: foilb

 1 1 Reynolds number fixed          Mach number fixed         

 xtrf =   1.000 (top)        1.000 (bottom)
 Mach =   0.000     Re =     0.600 e 6     Ncrit =   9.000

  alpha     CL        CD       CDp       Cm    Top Xtr Bot Xtr   Cpmin    Chinge    XCp    
 ------- -------- --------- --------- -------- ------- ------- -------- --------- ---------
  -8.000  -0.3520   0.04241   0.04020  -0.1066  0.9700  0.0156  -4.4066   0.0000  -0.0638
  -7.500  -0.3230   0.01996   0.01553  -0.1235  0.9591  0.0118  -5.6112   0.0000  -0.1445
  -7.000  -0.2673   0.01696   0.01209  -0.1251  0.9528  0.0125  -5.1281   0.0000  -0.2313
  -6.500  -0.2002   0.01472   0.00952  -0.1283  0.9499  0.0138  -4.5479   0.0000  -0.4067
  -6.000  -0.1296   0.01257   0.00712  -0.1322  0.9484  0.0160  -4.0015   0.0000  -0.7918
  -5.500  -0.0690   0.01135   0.00578  -0.1336  0.9421  0.0206  -3.5098   0.0000  -1.7240
  -5.000   0.0013   0.01020   0.00455  -0.1370  0.9389  0.0300  -2.9705   0.0000  110.2307
  -4.500   0.0652   0.00937   0.00372  -0.1389  0.9328  0.0489  -2.4423   0.0000   2.4111
  -4.000   0.1327   0.00855   0.00305  -0.1417  0.9271  0.0984  -1.9126   0.0000   1.3302
  -3.500   0.1936   0.00800   0.00262  -0.1429  0.9176  0.1534  -1.4764   0.0000   0.9957
  -3.000   0.2542   0.00752   0.00231  -0.1441  0.9074  0.2229  -1.0838   0.0000   0.8215
  -2.500   0.3138   0.00709   0.00207  -0.1450  0.8958  0.3084  -0.7793   0.0000   0.7153
  -2.000   0.3724   0.00676   0.00190  -0.1457  0.8832  0.3918  -0.5601   0.0000   0.6431
  -1.500   0.4296   0.00649   0.00181  -0.1460  0.8692  0.4812  -0.5630   0.0000   0.5909
  -1.000   0.4845   0.00627   0.00179  -0.1458  0.8529  0.5711  -0.5981   0.0000   0.5511
  -0.500   0.5402   0.00612   0.00178  -0.1456  0.8364  0.6549  -0.6375   0.0000   0.5192
   0.000   0.5932   0.00602   0.00183  -0.1448  0.8173  0.7327  -0.6782   0.0000   0.4932
   0.500   0.6448   0.00597   0.00190  -0.1435  0.7972  0.8043  -0.7245   0.0000   0.4712
   1.000   0.6930   0.00596   0.00198  -0.1415  0.7749  0.8712  -0.7756   0.0000   0.4523
   1.500   0.7347   0.00592   0.00199  -0.1378  0.7501  0.9491  -0.8301   0.0000   0.4352
   2.000   0.7928   0.00606   0.00203  -0.1383  0.7232  1.0000  -0.9022   0.0000   0.4216
   2.500   0.8451   0.00631   0.00216  -0.1376  0.6925  1.0000  -0.9907   0.0000   0.4094
   3.000   0.8960   0.00662   0.00234  -0.1365  0.6577  1.0000  -1.0889   0.0000   0.3986
   3.500   0.9451   0.00700   0.00258  -0.1352  0.6159  1.0000  -1.2045   0.0000   0.3887
   4.000   0.9929   0.00746   0.00288  -0.1336  0.5701  1.0000  -1.3437   0.0000   0.3797
   4.500   1.0389   0.00803   0.00326  -0.1317  0.5179  1.0000  -1.5167   0.0000   0.3714
   5.000   1.0827   0.00874   0.00373  -0.1294  0.4550  1.0000  -1.7441   0.0000   0.3636
   5.500   1.1249   0.00960   0.00431  -0.1270  0.3862  1.0000  -2.1453   0.0000   0.3564
   6.000   1.1648   0.01065   0.00501  -0.1243  0.3096  1.0000  -2.5829   0.0000   0.3496
   6.500   1.2036   0.01181   0.00584  -0.1215  0.2368  1.0000  -3.0619   0.0000   0.3433
   7.000   1.2401   0.01311   0.00678  -0.1184  0.1672  1.0000  -3.5550   0.0000   0.3372
   7.500   1.2735   0.01451   0.00784  -0.1148  0.1063  1.0000  -4.0540   0.0000   0.3312
   8.000   1.3070   0.01575   0.00891  -0.1111  0.0703  1.0000  -4.5743   0.0000   0.3254


