XFLR5 v6.06

 Calculated polar for: foilb

 1 1 Reynolds number fixed          Mach number fixed         

 xtrf =   1.000 (top)        1.000 (bottom)
 Mach =   0.000     Re =     0.350 e 6     Ncrit =   9.000

  alpha     CL        CD       CDp       Cm    Top Xtr Bot Xtr   Cpmin    Chinge    XCp    
 ------- -------- --------- --------- -------- ------- ------- -------- --------- ---------
  -7.000  -0.3422   0.03150   0.02731  -0.1063  0.9602  0.0194  -4.5277   0.0000  -0.0705
  -6.500  -0.2866   0.02372   0.01856  -0.1109  0.9537  0.0189  -4.4399   0.0000  -0.1481
  -6.000  -0.2201   0.01882   0.01290  -0.1149  0.9498  0.0202  -4.1154   0.0000  -0.2850
  -5.000  -0.0876   0.01491   0.00858  -0.1203  0.9396  0.0308  -3.2195   0.0000  -1.1485
  -4.500  -0.0120   0.01344   0.00705  -0.1248  0.9372  0.0467  -2.7026   0.0000  -10.3169
  -4.000   0.0505   0.01231   0.00600  -0.1265  0.9294  0.0850  -2.2284   0.0000   2.7896
  -3.500   0.1279   0.01131   0.00520  -0.1313  0.9271  0.1559  -1.6985   0.0000   1.2881
  -3.000   0.1936   0.01057   0.00472  -0.1336  0.9196  0.2450  -1.2773   0.0000   0.9466
  -2.500   0.2692   0.00976   0.00418  -0.1379  0.9158  0.3527  -0.8704   0.0000   0.7660
  -2.000   0.3327   0.00919   0.00387  -0.1395  0.9065  0.4564  -0.6303   0.0000   0.6717
  -1.500   0.3964   0.00868   0.00363  -0.1410  0.8967  0.5654  -0.5447   0.0000   0.6070
  -1.000   0.4579   0.00826   0.00345  -0.1419  0.8853  0.6638  -0.5829   0.0000   0.5603
  -0.500   0.5164   0.00795   0.00333  -0.1419  0.8724  0.7542  -0.6234   0.0000   0.5245
   0.000   0.5683   0.00773   0.00326  -0.1403  0.8566  0.8332  -0.6634   0.0000   0.4961
   0.500   0.6127   0.00754   0.00316  -0.1369  0.8389  0.9113  -0.7049   0.0000   0.4721
   1.000   0.6729   0.00738   0.00296  -0.1374  0.8200  1.0000  -0.7618   0.0000   0.4524
   1.500   0.7302   0.00746   0.00293  -0.1376  0.7987  1.0000  -0.8251   0.0000   0.4362
   2.000   0.7854   0.00759   0.00296  -0.1374  0.7744  1.0000  -0.8949   0.0000   0.4221
   2.500   0.8396   0.00776   0.00304  -0.1369  0.7482  1.0000  -0.9830   0.0000   0.4098
   3.000   0.8916   0.00799   0.00319  -0.1360  0.7178  1.0000  -1.0815   0.0000   0.3987
   3.500   0.9421   0.00828   0.00338  -0.1347  0.6836  1.0000  -1.1977   0.0000   0.3887
   4.000   0.9907   0.00866   0.00365  -0.1331  0.6436  1.0000  -1.3369   0.0000   0.3796
   4.500   1.0371   0.00912   0.00400  -0.1311  0.5981  1.0000  -1.5078   0.0000   0.3711
   5.000   1.0810   0.00971   0.00443  -0.1287  0.5449  1.0000  -1.7216   0.0000   0.3631
   5.500   1.1215   0.01048   0.00499  -0.1257  0.4818  1.0000  -2.1137   0.0000   0.3556
   6.000   1.1590   0.01145   0.00569  -0.1223  0.4103  1.0000  -2.5251   0.0000   0.3485
   6.500   1.1933   0.01266   0.00657  -0.1186  0.3305  1.0000  -2.9751   0.0000   0.3417
   7.000   1.2262   0.01403   0.00759  -0.1148  0.2534  1.0000  -3.4405   0.0000   0.3353
   7.500   1.2560   0.01553   0.00875  -0.1105  0.1829  1.0000  -3.9089   0.0000   0.3291
   8.000   1.2839   0.01718   0.01010  -0.1061  0.1227  1.0000  -4.3832   0.0000   0.3231


