XFLR5 v6.06

 Calculated polar for: foilb

 1 1 Reynolds number fixed          Mach number fixed         

 xtrf =   1.000 (top)        1.000 (bottom)
 Mach =   0.000     Re =     0.500 e 6     Ncrit =   9.000

  alpha     CL        CD       CDp       Cm    Top Xtr Bot Xtr   Cpmin    Chinge    XCp    
 ------- -------- --------- --------- -------- ------- ------- -------- --------- ---------
  -8.000  -0.3846   0.04008   0.03749  -0.1047  0.9697  0.0153  -4.8485   0.0000  -0.0327
  -6.500  -0.2264   0.01670   0.01131  -0.1230  0.9501  0.0150  -4.5971   0.0000  -0.3076
  -6.000  -0.1560   0.01447   0.00888  -0.1270  0.9482  0.0172  -4.0012   0.0000  -0.5826
  -5.000  -0.0241   0.01149   0.00561  -0.1321  0.9391  0.0303  -3.0509   0.0000  -5.3157
  -4.500   0.0505   0.01044   0.00454  -0.1363  0.9371  0.0494  -2.4881   0.0000   2.9879
  -4.000   0.1113   0.00955   0.00381  -0.1376  0.9292  0.0977  -1.9948   0.0000   1.5026
  -3.500   0.1776   0.00887   0.00327  -0.1401  0.9227  0.1580  -1.5295   0.0000   1.0470
  -3.000   0.2448   0.00822   0.00284  -0.1427  0.9156  0.2395  -1.1128   0.0000   0.8380
  -2.500   0.3055   0.00773   0.00256  -0.1439  0.9052  0.3272  -0.7956   0.0000   0.7241
  -2.000   0.3658   0.00733   0.00234  -0.1449  0.8937  0.4172  -0.5716   0.0000   0.6480
  -1.500   0.4240   0.00700   0.00223  -0.1453  0.8805  0.5126  -0.5598   0.0000   0.5939
  -1.000   0.4796   0.00676   0.00218  -0.1452  0.8652  0.6033  -0.5951   0.0000   0.5530
  -0.500   0.5355   0.00657   0.00216  -0.1449  0.8492  0.6897  -0.6346   0.0000   0.5204
   0.000   0.5881   0.00646   0.00220  -0.1439  0.8311  0.7668  -0.6751   0.0000   0.4938
   0.500   0.6387   0.00639   0.00224  -0.1423  0.8121  0.8380  -0.7205   0.0000   0.4714
   1.000   0.6834   0.00634   0.00226  -0.1393  0.7910  0.9082  -0.7693   0.0000   0.4519
   1.500   0.7371   0.00628   0.00219  -0.1384  0.7672  1.0000  -0.8313   0.0000   0.4355
   2.000   0.7912   0.00647   0.00227  -0.1381  0.7410  1.0000  -0.9006   0.0000   0.4217
   2.500   0.8439   0.00671   0.00238  -0.1374  0.7119  1.0000  -0.9889   0.0000   0.4095
   3.000   0.8951   0.00700   0.00256  -0.1364  0.6793  1.0000  -1.0873   0.0000   0.3986
   3.500   0.9445   0.00735   0.00278  -0.1350  0.6398  1.0000  -1.2029   0.0000   0.3886
   4.000   0.9923   0.00778   0.00308  -0.1334  0.5965  1.0000  -1.3419   0.0000   0.3796
   4.500   1.0383   0.00831   0.00345  -0.1314  0.5467  1.0000  -1.5142   0.0000   0.3712
   5.000   1.0814   0.00901   0.00392  -0.1290  0.4861  1.0000  -1.7347   0.0000   0.3634
   5.500   1.1231   0.00982   0.00449  -0.1264  0.4201  1.0000  -2.1331   0.0000   0.3561
   6.000   1.1619   0.01087   0.00520  -0.1234  0.3429  1.0000  -2.5599   0.0000   0.3492
   6.500   1.1995   0.01206   0.00605  -0.1204  0.2682  1.0000  -3.0306   0.0000   0.3427
   7.000   1.2355   0.01336   0.00701  -0.1172  0.1965  1.0000  -3.5179   0.0000   0.3366
   7.500   1.2676   0.01481   0.00810  -0.1134  0.1307  1.0000  -4.0066   0.0000   0.3305
   8.000   1.2982   0.01627   0.00930  -0.1093  0.0831  1.0000  -4.5057   0.0000   0.3246


