XFLR5 v6.06

 Calculated polar for: foilb

 1 1 Reynolds number fixed          Mach number fixed         

 xtrf =   1.000 (top)        1.000 (bottom)
 Mach =   0.000     Re =     0.050 e 6     Ncrit =   9.000

  alpha     CL        CD       CDp       Cm    Top Xtr Bot Xtr   Cpmin    Chinge    XCp    
 ------- -------- --------- --------- -------- ------- ------- -------- --------- ---------
  -8.000  -0.3179   0.10686   0.10081  -0.0243  1.0000  0.2327  -1.3508   0.0000   0.1676
  -7.500  -0.3303   0.10256   0.09667  -0.0209  1.0000  0.2491  -1.3655   0.0000   0.1813
  -7.000  -0.3570   0.09933   0.09367  -0.0170  1.0000  0.2627  -1.4107   0.0000   0.1981
  -6.500  -0.3535   0.09330   0.08773  -0.0126  1.0000  0.2823  -1.3809   0.0000   0.2104
  -6.000  -0.3877   0.09044   0.08511  -0.0069  1.0000  0.2970  -1.4318   0.0000   0.2289
  -5.500  -0.3927   0.08484   0.07963  -0.0024  1.0000  0.3149  -1.4393   0.0000   0.2410
  -5.000  -0.4054   0.07995   0.07489   0.0017  1.0000  0.3395  -1.4581   0.0000   0.2515
  -4.500  -0.4443   0.07708   0.07178   0.0019  1.0000  0.3713  -1.6172   0.0000   0.2511
  -4.000  -0.2929   0.03955   0.03114  -0.0688  1.0000  0.1348  -2.4727   0.0000   0.0099
  -3.500  -0.2299   0.03394   0.02461  -0.0723  1.0000  0.1535  -2.3629   0.0000  -0.0706
  -3.000  -0.1715   0.03045   0.02053  -0.0737  1.0000  0.1958  -2.1684   0.0000  -0.1872
  -2.500  -0.1203   0.02840   0.01854  -0.0735  1.0000  0.2775  -1.9129   0.0000  -0.3700
  -2.000  -0.0712   0.02705   0.01758  -0.0727  1.0000  0.4047  -1.6420   0.0000  -0.7834
  -1.500  -0.0291   0.02626   0.01747  -0.0696  1.0000  0.5846  -1.3603   0.0000  -2.1663
  -1.000  -0.0162   0.02538   0.01750  -0.0591  1.0000  0.8135  -1.1624   0.0000  -3.4373
  -0.500   0.0306   0.02522   0.01665  -0.0614  1.0000  1.0000  -0.9116   0.0000   2.2688
   0.000   0.0799   0.02653   0.01728  -0.0634  1.0000  1.0000  -0.7114   0.0000   1.0456
   0.500   0.1240   0.02802   0.01828  -0.0644  1.0000  1.0000  -0.5455   0.0000   0.7685
   1.000   0.1654   0.02970   0.01961  -0.0650  1.0000  1.0000  -0.4268   0.0000   0.6413
   1.500   0.2047   0.03158   0.02123  -0.0656  1.0000  1.0000  -0.4522   0.0000   0.5678
   2.000   0.2896   0.03477   0.02416  -0.0746  0.9746  1.0000  -0.5086   0.0000   0.5044
   2.500   0.3708   0.03743   0.02669  -0.0822  0.9437  1.0000  -0.5695   0.0000   0.4682
   3.000   0.4476   0.03977   0.02899  -0.0885  0.9128  1.0000  -0.6359   0.0000   0.4437
   3.500   0.5247   0.04185   0.03113  -0.0941  0.8814  1.0000  -0.7116   0.0000   0.4250
   4.000   0.5954   0.04361   0.03301  -0.0981  0.8485  1.0000  -0.7961   0.0000   0.4100
   4.500   0.6672   0.04502   0.03463  -0.1015  0.8145  1.0000  -0.8968   0.0000   0.3970
   5.000   0.7297   0.04624   0.03613  -0.1029  0.7779  1.0000  -1.0070   0.0000   0.3855
   5.500   0.7991   0.04681   0.03704  -0.1043  0.7402  1.0000  -1.1523   0.0000   0.3744
   6.000   0.8874   0.04560   0.03634  -0.1059  0.7029  1.0000  -1.3709   0.0000   0.3628
   6.500   0.9800   0.04247   0.03383  -0.1056  0.6623  1.0000  -1.6863   0.0000   0.3507
   7.000   1.1351   0.03390   0.02612  -0.1088  0.6085  1.0000  -2.5991   0.0000   0.3381
   7.500   1.2200   0.03051   0.02288  -0.1060  0.5191  1.0000  -3.2889   0.0000   0.3284
   8.000   1.2536   0.03121   0.02315  -0.0989  0.4149  1.0000  -3.7426   0.0000   0.3197


