XFLR5 v6.06

 Calculated polar for: fab_f_d

 1 1 Reynolds number fixed          Mach number fixed         

 xtrf =   1.000 (top)        1.000 (bottom)
 Mach =   0.000     Re =     0.250 e 6     Ncrit =   9.000

  alpha     CL        CD       CDp       Cm    Top Xtr Bot Xtr   Cpmin    Chinge    XCp    
 ------- -------- --------- --------- -------- ------- ------- -------- --------- ---------
  -8.000  -0.0456   0.05088   0.04745  -0.1546  0.9129  0.0547  -2.5896   0.0000  -3.2633
  -7.500  -0.1064   0.02501   0.01917  -0.1675  0.8917  0.0473  -3.7652   0.0000  -1.3793
  -7.000  -0.0560   0.02239   0.01602  -0.1683  0.8851  0.0514  -3.4360   0.0000  -2.8535
  -6.500  -0.0056   0.02063   0.01385  -0.1682  0.8782  0.0563  -3.0831   0.0000  -30.8056
  -6.000   0.0472   0.01923   0.01214  -0.1683  0.8716  0.0621  -2.7173   0.0000   3.9146
  -5.500   0.1058   0.01808   0.01094  -0.1693  0.8668  0.0694  -2.3225   0.0000   1.8906
  -5.000   0.1526   0.01739   0.01017  -0.1680  0.8587  0.0784  -2.0566   0.0000   1.3765
  -4.500   0.2142   0.01651   0.00926  -0.1694  0.8541  0.0916  -1.7868   0.0000   1.0568
  -4.000   0.2617   0.01607   0.00888  -0.1682  0.8449  0.1072  -1.5697   0.0000   0.9042
  -3.500   0.3238   0.01544   0.00827  -0.1695  0.8398  0.1315  -1.3252   0.0000   0.7818
  -3.000   0.3723   0.01521   0.00818  -0.1686  0.8312  0.1647  -1.1272   0.0000   0.7089
  -2.500   0.4340   0.01468   0.00777  -0.1699  0.8257  0.2186  -0.9235   0.0000   0.6458
  -2.000   0.4855   0.01442   0.00775  -0.1695  0.8164  0.2896  -0.7537   0.0000   0.6019
  -1.500   0.5480   0.01379   0.00750  -0.1710  0.8107  0.4208  -0.7771   0.0000   0.5637
  -1.000   0.5958   0.01346   0.00786  -0.1696  0.8012  0.6242  -0.8110   0.0000   0.5354
  -0.500   0.6535   0.01316   0.00776  -0.1688  0.7949  0.7628  -0.8556   0.0000   0.5082
   0.000   0.6952   0.01331   0.00800  -0.1654  0.7840  0.8236  -0.8912   0.0000   0.4869
   0.500   0.7383   0.01325   0.00798  -0.1620  0.7746  0.8748  -0.9318   0.0000   0.4676
   1.000   0.7856   0.01279   0.00748  -0.1591  0.7661  0.9207  -0.9802   0.0000   0.4501
   1.500   0.8417   0.01261   0.00732  -0.1591  0.7549  1.0000  -1.0331   0.0000   0.4358
   2.000   0.9037   0.01254   0.00716  -0.1606  0.7437  1.0000  -1.0982   0.0000   0.4238
   2.500   0.9664   0.01239   0.00692  -0.1620  0.7322  1.0000  -1.1671   0.0000   0.4131
   3.000   1.0288   0.01225   0.00669  -0.1633  0.7207  1.0000  -1.2366   0.0000   0.4035
   3.500   1.0838   0.01218   0.00661  -0.1631  0.7051  1.0000  -1.3088   0.0000   0.3947
   4.000   1.1360   0.01220   0.00662  -0.1624  0.6873  1.0000  -1.3840   0.0000   0.3865
   4.500   1.1881   0.01225   0.00668  -0.1617  0.6680  1.0000  -1.4603   0.0000   0.3789
   5.000   1.2409   0.01234   0.00671  -0.1611  0.6467  1.0000  -1.5536   0.0000   0.3719
   5.500   1.2882   0.01258   0.00690  -0.1594  0.6189  1.0000  -1.6481   0.0000   0.3651
   6.000   1.3330   0.01299   0.00727  -0.1574  0.5894  1.0000  -1.7518   0.0000   0.3587
   6.500   1.3728   0.01359   0.00778  -0.1545  0.5550  1.0000  -1.8610   0.0000   0.3525
   7.000   1.4083   0.01436   0.00845  -0.1509  0.5189  1.0000  -1.9768   0.0000   0.3463
   7.500   1.4385   0.01531   0.00928  -0.1464  0.4846  1.0000  -2.1027   0.0000   0.3402
   8.000   1.4632   0.01641   0.01031  -0.1412  0.4499  1.0000  -2.2871   0.0000   0.3342


