XFLR5 v6.06

 Calculated polar for: fab_h_b

 1 1 Reynolds number fixed          Mach number fixed         

 xtrf =   1.000 (top)        1.000 (bottom)
 Mach =   0.000     Re =     0.350 e 6     Ncrit =   9.000

  alpha     CL        CD       CDp       Cm    Top Xtr Bot Xtr   Cpmin    Chinge    XCp    
 ------- -------- --------- --------- -------- ------- ------- -------- --------- ---------
  -8.000  -0.0875   0.02136   0.01545  -0.1787  0.8433  0.0419  -3.9055   0.0000  -1.8764
  -7.500  -0.0362   0.01950   0.01314  -0.1793  0.8392  0.0448  -3.5312   0.0000  -4.8949
  -7.000   0.0121   0.01833   0.01169  -0.1786  0.8332  0.0480  -3.1840   0.0000  15.5415
  -6.500   0.0647   0.01731   0.01056  -0.1786  0.8282  0.0517  -2.8629   0.0000   3.1018
  -6.000   0.1211   0.01641   0.00950  -0.1792  0.8242  0.0564  -2.5786   0.0000   1.7746
  -5.500   0.1705   0.01566   0.00880  -0.1785  0.8187  0.0618  -2.3199   0.0000   1.3258
  -5.000   0.2251   0.01500   0.00814  -0.1786  0.8135  0.0694  -2.0654   0.0000   1.0636
  -4.500   0.2837   0.01444   0.00752  -0.1794  0.8090  0.0797  -1.8059   0.0000   0.8966
  -4.000   0.3342   0.01407   0.00720  -0.1788  0.8023  0.0915  -1.5792   0.0000   0.7955
  -3.500   0.3916   0.01362   0.00677  -0.1793  0.7973  0.1083  -1.3587   0.0000   0.7158
  -3.000   0.4479   0.01335   0.00656  -0.1797  0.7921  0.1331  -1.1510   0.0000   0.6569
  -2.500   0.5022   0.01303   0.00637  -0.1797  0.7853  0.1693  -0.9633   0.0000   0.6119
  -2.000   0.5629   0.01265   0.00608  -0.1808  0.7804  0.2184  -0.8372   0.0000   0.5739
  -1.500   0.6152   0.01242   0.00610  -0.1805  0.7728  0.2851  -0.8734   0.0000   0.5449
  -1.000   0.6751   0.01187   0.00589  -0.1816  0.7669  0.4139  -0.9151   0.0000   0.5195
  -0.500   0.7270   0.01136   0.00612  -0.1810  0.7593  0.6525  -0.9567   0.0000   0.4986
   0.000   0.7816   0.01123   0.00612  -0.1802  0.7524  0.7630  -1.0023   0.0000   0.4792
   0.500   0.8317   0.01126   0.00620  -0.1786  0.7436  0.8094  -1.0468   0.0000   0.4626
   1.000   0.8857   0.01115   0.00606  -0.1777  0.7366  0.8462  -1.1013   0.0000   0.4477
   1.500   0.9315   0.01108   0.00604  -0.1753  0.7264  0.8747  -1.1504   0.0000   0.4345
   2.000   0.9806   0.01087   0.00583  -0.1735  0.7170  0.9019  -1.2044   0.0000   0.4226
   2.500   1.0262   0.01057   0.00554  -0.1710  0.7070  0.9354  -1.2642   0.0000   0.4115
   3.000   1.0834   0.01037   0.00537  -0.1713  0.6939  1.0000  -1.3324   0.0000   0.4024
   3.500   1.1408   0.01041   0.00537  -0.1720  0.6795  1.0000  -1.4014   0.0000   0.3943
   4.000   1.1965   0.01050   0.00542  -0.1723  0.6637  1.0000  -1.4731   0.0000   0.3868
   4.500   1.2493   0.01066   0.00554  -0.1720  0.6451  1.0000  -1.5525   0.0000   0.3797
   5.000   1.2986   0.01094   0.00578  -0.1710  0.6232  1.0000  -1.6295   0.0000   0.3730
   5.500   1.3442   0.01131   0.00608  -0.1693  0.5969  1.0000  -1.7048   0.0000   0.3665
   6.000   1.3854   0.01185   0.00650  -0.1668  0.5677  1.0000  -1.7932   0.0000   0.3602
   6.500   1.4214   0.01253   0.00708  -0.1634  0.5384  1.0000  -1.8804   0.0000   0.3540
   7.000   1.4504   0.01339   0.00783  -0.1588  0.5078  1.0000  -1.9651   0.0000   0.3477
   7.500   1.4752   0.01446   0.00879  -0.1537  0.4765  1.0000  -2.0540   0.0000   0.3416
   8.000   1.4981   0.01572   0.00997  -0.1487  0.4476  1.0000  -2.1470   0.0000   0.3358


