XFLR5 v6.06

 Calculated polar for: fab_f_d

 1 1 Reynolds number fixed          Mach number fixed         

 xtrf =   1.000 (top)        1.000 (bottom)
 Mach =   0.000     Re =     0.300 e 6     Ncrit =   9.000

  alpha     CL        CD       CDp       Cm    Top Xtr Bot Xtr   Cpmin    Chinge    XCp    
 ------- -------- --------- --------- -------- ------- ------- -------- --------- ---------
  -8.000  -0.1391   0.02262   0.01686  -0.1703  0.8866  0.0404  -4.2327   0.0000  -1.0197
  -7.500  -0.0879   0.02062   0.01438  -0.1710  0.8806  0.0444  -3.8521   0.0000  -1.7624
  -7.000  -0.0405   0.01913   0.01262  -0.1704  0.8732  0.0482  -3.4762   0.0000  -4.0913
  -6.500   0.0169   0.01770   0.01088  -0.1713  0.8680  0.0530  -3.0682   0.0000  10.6913
  -6.000   0.0642   0.01677   0.00992  -0.1703  0.8604  0.0582  -2.6940   0.0000   2.9743
  -5.500   0.1209   0.01585   0.00890  -0.1708  0.8550  0.0656  -2.3032   0.0000   1.6980
  -5.000   0.1717   0.01519   0.00824  -0.1703  0.8485  0.0745  -2.0329   0.0000   1.2639
  -4.500   0.2272   0.01456   0.00760  -0.1705  0.8421  0.0871  -1.7737   0.0000   1.0158
  -4.000   0.2820   0.01407   0.00709  -0.1706  0.8353  0.1035  -1.5382   0.0000   0.8657
  -3.500   0.3368   0.01362   0.00672  -0.1707  0.8283  0.1260  -1.3055   0.0000   0.7645
  -3.000   0.3953   0.01321   0.00639  -0.1715  0.8230  0.1628  -1.0898   0.0000   0.6894
  -2.500   0.4480   0.01292   0.00625  -0.1712  0.8147  0.2116  -0.9025   0.0000   0.6361
  -2.000   0.5084   0.01250   0.00600  -0.1723  0.8087  0.2840  -0.7526   0.0000   0.5915
  -0.500   0.6676   0.01145   0.00624  -0.1707  0.7838  0.7368  -0.8662   0.0000   0.5053
   0.000   0.7185   0.01152   0.00636  -0.1691  0.7757  0.8015  -0.9075   0.0000   0.4843
   0.500   0.7694   0.01136   0.00620  -0.1673  0.7668  0.8495  -0.9540   0.0000   0.4656
   1.000   0.8133   0.01131   0.00620  -0.1644  0.7562  0.8870  -0.9997   0.0000   0.4496
   1.500   0.8574   0.01108   0.00598  -0.1613  0.7468  0.9287  -1.0461   0.0000   0.4349
   2.000   0.9210   0.01072   0.00558  -0.1626  0.7360  1.0000  -1.1137   0.0000   0.4227
   2.500   0.9788   0.01074   0.00556  -0.1634  0.7232  1.0000  -1.1789   0.0000   0.4124
   3.000   1.0363   0.01073   0.00551  -0.1639  0.7093  1.0000  -1.2448   0.0000   0.4029
   3.500   1.0924   0.01073   0.00546  -0.1641  0.6935  1.0000  -1.3185   0.0000   0.3943
   4.000   1.1472   0.01080   0.00548  -0.1639  0.6765  1.0000  -1.3960   0.0000   0.3863
   4.500   1.1970   0.01097   0.00568  -0.1629  0.6554  1.0000  -1.4704   0.0000   0.3788
   5.000   1.2470   0.01118   0.00582  -0.1618  0.6305  1.0000  -1.5618   0.0000   0.3718
   5.500   1.2933   0.01155   0.00612  -0.1600  0.6019  1.0000  -1.6556   0.0000   0.3651
   6.000   1.3366   0.01205   0.00654  -0.1578  0.5709  1.0000  -1.7583   0.0000   0.3587
   6.500   1.3743   0.01274   0.00712  -0.1546  0.5341  1.0000  -1.8656   0.0000   0.3524
   7.000   1.4080   0.01359   0.00783  -0.1507  0.4999  1.0000  -1.9793   0.0000   0.3462
   7.500   1.4361   0.01453   0.00870  -0.1459  0.4652  1.0000  -2.1019   0.0000   0.3400
   8.000   1.4607   0.01568   0.00977  -0.1408  0.4311  1.0000  -2.2852   0.0000   0.3340


