XFLR5 v6.06

 Calculated polar for: fab_d_f

 1 1 Reynolds number fixed          Mach number fixed         

 xtrf =   1.000 (top)        1.000 (bottom)
 Mach =   0.000     Re =     0.050 e 6     Ncrit =   9.000

  alpha     CL        CD       CDp       Cm    Top Xtr Bot Xtr   Cpmin    Chinge    XCp    
 ------- -------- --------- --------- -------- ------- ------- -------- --------- ---------
  -8.000  -0.3690   0.11955   0.11357  -0.0206  1.0000  0.2154  -1.5945   0.0000   0.1838
  -7.500  -0.3855   0.11592   0.11010  -0.0173  1.0000  0.2266  -1.6215   0.0000   0.1960
  -7.000  -0.4318   0.11540   0.10981  -0.0132  1.0000  0.2356  -1.7159   0.0000   0.2120
  -6.500  -0.4512   0.11160   0.10615  -0.0088  1.0000  0.2491  -1.7331   0.0000   0.2240
  -6.000  -0.4466   0.10529   0.09992  -0.0044  1.0000  0.2666  -1.6886   0.0000   0.2339
  -5.500  -0.4556   0.10066   0.09539  -0.0009  1.0000  0.2855  -1.6795   0.0000   0.2424
  -5.000  -0.4730   0.09606   0.09092  -0.0001  1.0000  0.3077  -1.7054   0.0000   0.2450
  -4.500  -0.4744   0.09073   0.08566   0.0024  1.0000  0.3369  -1.6758   0.0000   0.2505
  -4.000  -0.4691   0.08546   0.08044   0.0068  1.0000  0.3720  -1.6253   0.0000   0.2604
  -3.500  -0.3000   0.05025   0.04282  -0.0681  1.0000  0.1713  -2.1945   0.0000   0.0160
  -3.000  -0.2298   0.04389   0.03546  -0.0758  1.0000  0.1814  -2.0550   0.0000  -0.0881
  -2.500  -0.1678   0.04038   0.03120  -0.0799  1.0000  0.2023  -1.8459   0.0000  -0.2364
  -2.000  -0.1103   0.03845   0.02865  -0.0824  1.0000  0.2351  -1.6216   0.0000  -0.5106
  -1.500  -0.0599   0.03748   0.02755  -0.0833  1.0000  0.2797  -1.4259   0.0000  -1.1625
  -1.000  -0.0096   0.03709   0.02721  -0.0840  1.0000  0.3511  -1.2576   0.0000  -8.6206
  -0.500   0.0417   0.03700   0.02768  -0.0845  1.0000  0.4909  -1.0902   0.0000   2.2950
   0.000   0.0525   0.03585   0.02829  -0.0737  1.0000  0.8903  -0.9924   0.0000   1.6640
   0.500   0.0949   0.03710   0.02859  -0.0763  1.0000  1.0000  -0.8490   0.0000   1.0565
   1.000   0.1385   0.03935   0.03027  -0.0780  1.0000  1.0000  -0.7054   0.0000   0.8128
   1.500   0.1788   0.04179   0.03231  -0.0792  1.0000  1.0000  -0.5788   0.0000   0.6914
   2.000   0.2169   0.04446   0.03466  -0.0804  1.0000  1.0000  -0.5098   0.0000   0.6177
   2.500   0.2531   0.04735   0.03734  -0.0815  1.0000  1.0000  -0.5327   0.0000   0.5682
   3.000   0.4614   0.05254   0.04199  -0.1068  0.8679  1.0000  -0.6872   0.0000   0.4772
   3.500   0.5187   0.05497   0.04434  -0.1092  0.8381  1.0000  -0.7347   0.0000   0.4557
   4.000   0.5744   0.05734   0.04668  -0.1111  0.8077  1.0000  -0.7878   0.0000   0.4380
   4.500   0.6291   0.05964   0.04898  -0.1126  0.7775  1.0000  -0.8457   0.0000   0.4230
   5.000   0.6860   0.06187   0.05128  -0.1141  0.7488  1.0000  -0.9074   0.0000   0.4098
   5.500   0.7442   0.06388   0.05340  -0.1154  0.7205  1.0000  -0.9801   0.0000   0.3979
   6.000   0.7967   0.06578   0.05544  -0.1158  0.6913  1.0000  -1.0554   0.0000   0.3875
   6.500   0.8501   0.06748   0.05735  -0.1159  0.6628  1.0000  -1.1399   0.0000   0.3779
   7.000   0.8958   0.06949   0.05959  -0.1152  0.6339  1.0000  -1.2227   0.0000   0.3696
   7.500   0.9436   0.07113   0.06147  -0.1143  0.6046  1.0000  -1.3208   0.0000   0.3614
   8.000   0.9914   0.07253   0.06316  -0.1129  0.5753  1.0000  -1.4354   0.0000   0.3535


