XFLR5 v6.06

 Calculated polar for: fab_h_b

 1 1 Reynolds number fixed          Mach number fixed         

 xtrf =   1.000 (top)        1.000 (bottom)
 Mach =   0.000     Re =     0.100 e 6     Ncrit =   9.000

  alpha     CL        CD       CDp       Cm    Top Xtr Bot Xtr   Cpmin    Chinge    XCp    
 ------- -------- --------- --------- -------- ------- ------- -------- --------- ---------
  -8.000  -0.2420   0.11399   0.10956  -0.0614  0.9468  0.1188  -1.6305   0.0000  -0.0278
  -7.500  -0.2369   0.10911   0.10472  -0.0616  0.9405  0.1247  -1.5971   0.0000  -0.0334
  -7.000  -0.2916   0.10784   0.10361  -0.0581  0.9320  0.1287  -1.7536   0.0000   0.0336
  -6.500  -0.2723   0.10217   0.09793  -0.0589  0.9250  0.1368  -1.6597   0.0000   0.0162
  -6.000  -0.2995   0.09793   0.09379  -0.0573  0.9154  0.1405  -1.7182   0.0000   0.0442
  -5.500  -0.2967   0.09117   0.08703  -0.0647  0.9084  0.1501  -1.7513   0.0000   0.0182
  -5.000  -0.2915   0.08538   0.08120  -0.0677  0.9006  0.1612  -1.7367   0.0000   0.0050
  -4.500  -0.2648   0.07953   0.07527  -0.0714  0.8920  0.1741  -1.6539   0.0000  -0.0325
  -4.000  -0.1132   0.04835   0.04153  -0.1180  0.8846  0.1079  -2.1077   0.0000  -0.8262
  -3.500  -0.0394   0.04404   0.03621  -0.1241  0.8735  0.1146  -1.9876   0.0000  -2.9903
  -3.000   0.0320   0.04215   0.03364  -0.1281  0.8615  0.1275  -1.8100   0.0000   4.3538
  -2.500   0.1070   0.04118   0.03235  -0.1321  0.8514  0.1470  -1.5903   0.0000   1.5098
  -2.000   0.1684   0.04076   0.03177  -0.1338  0.8398  0.1715  -1.4006   0.0000   1.0586
  -1.500   0.2186   0.04072   0.03186  -0.1340  0.8270  0.2017  -1.2345   0.0000   0.8720
  -1.000   0.2759   0.04067   0.03198  -0.1351  0.8134  0.2522  -1.0602   0.0000   0.7450
  -0.500   0.3348   0.04051   0.03227  -0.1362  0.7992  0.3405  -0.8868   0.0000   0.6598
   0.000   0.3850   0.03991   0.03321  -0.1350  0.7859  0.6731  -0.7349   0.0000   0.6019
   0.500   0.3994   0.03982   0.03348  -0.1255  0.7709  1.0000  -0.7149   0.0000   0.5641
   1.000   0.4596   0.04093   0.03416  -0.1275  0.7566  1.0000  -0.7604   0.0000   0.5259
   1.500   0.5192   0.04186   0.03478  -0.1289  0.7418  1.0000  -0.8104   0.0000   0.4958
   2.000   0.5796   0.04252   0.03520  -0.1301  0.7267  1.0000  -0.8622   0.0000   0.4710
   3.000   0.6908   0.04416   0.03653  -0.1313  0.6975  1.0000  -0.9680   0.0000   0.4348
   3.500   0.7785   0.04305   0.03529  -0.1346  0.6911  1.0000  -1.0580   0.0000   0.4168
   4.000   0.8072   0.04464   0.03685  -0.1319  0.6678  1.0000  -1.0951   0.0000   0.4065
   4.500   0.8917   0.04302   0.03518  -0.1343  0.6612  1.0000  -1.1857   0.0000   0.3929
   5.000   0.9433   0.04322   0.03540  -0.1336  0.6456  1.0000  -1.2532   0.0000   0.3832
   5.500   0.9938   0.04333   0.03555  -0.1327  0.6295  1.0000  -1.3253   0.0000   0.3743
   6.500   1.1739   0.03634   0.02870  -0.1362  0.6173  1.0000  -1.5696   0.0000   0.3553
   7.000   1.2032   0.03744   0.02991  -0.1329  0.5943  1.0000  -1.6393   0.0000   0.3489
   7.500   1.3340   0.03158   0.02416  -0.1393  0.5895  1.0000  -1.8390   0.0000   0.3421
   8.000   1.3946   0.03059   0.02326  -0.1388  0.5665  1.0000  -1.9694   0.0000   0.3365


