XFLR5 v6.06

 Calculated polar for: fab_h_b

 1 1 Reynolds number fixed          Mach number fixed         

 xtrf =   1.000 (top)        1.000 (bottom)
 Mach =   0.000     Re =     0.300 e 6     Ncrit =   9.000

  alpha     CL        CD       CDp       Cm    Top Xtr Bot Xtr   Cpmin    Chinge    XCp    
 ------- -------- --------- --------- -------- ------- ------- -------- --------- ---------
  -8.000  -0.0867   0.02417   0.01835  -0.1787  0.8545  0.0448  -3.8111   0.0000  -1.8953
  -7.500  -0.0434   0.02206   0.01572  -0.1782  0.8487  0.0476  -3.4942   0.0000  -4.0128
  -7.000   0.0063   0.02056   0.01406  -0.1781  0.8428  0.0507  -3.1398   0.0000  29.6337
  -6.500   0.0613   0.01917   0.01239  -0.1787  0.8388  0.0546  -2.8186   0.0000   3.2622
  -6.000   0.1082   0.01825   0.01135  -0.1777  0.8323  0.0592  -2.5714   0.0000   1.9427
  -5.500   0.1624   0.01733   0.01029  -0.1778  0.8275  0.0651  -2.3104   0.0000   1.3755
  -5.000   0.2195   0.01654   0.00945  -0.1784  0.8235  0.0729  -2.0591   0.0000   1.0833
  -4.500   0.2682   0.01612   0.00900  -0.1774  0.8159  0.0828  -1.8292   0.0000   0.9265
  -4.000   0.3267   0.01552   0.00839  -0.1781  0.8111  0.0960  -1.5853   0.0000   0.8061
  -3.500   0.3786   0.01519   0.00815  -0.1778  0.8050  0.1123  -1.3771   0.0000   0.7278
  -3.000   0.4340   0.01487   0.00790  -0.1780  0.7989  0.1368  -1.1721   0.0000   0.6661
  -2.500   0.4960   0.01439   0.00751  -0.1793  0.7946  0.1755  -0.9709   0.0000   0.6158
  -2.000   0.5453   0.01422   0.00752  -0.1785  0.7859  0.2223  -0.8244   0.0000   0.5802
  -1.500   0.6071   0.01374   0.00723  -0.1799  0.7810  0.2994  -0.8664   0.0000   0.5479
  -1.000   0.6589   0.01339   0.00734  -0.1796  0.7727  0.4371  -0.9027   0.0000   0.5232
  -0.500   0.7160   0.01267   0.00735  -0.1795  0.7667  0.6937  -0.9482   0.0000   0.5004
   0.000   0.7631   0.01283   0.00764  -0.1773  0.7582  0.7792  -0.9885   0.0000   0.4812
   0.500   0.8187   0.01259   0.00736  -0.1764  0.7514  0.8274  -1.0366   0.0000   0.4635
   1.000   0.8622   0.01262   0.00744  -0.1735  0.7416  0.8649  -1.0838   0.0000   0.4484
   1.500   0.9155   0.01229   0.00706  -0.1722  0.7350  0.8975  -1.1382   0.0000   0.4346
   2.000   0.9551   0.01201   0.00685  -0.1685  0.7235  0.9319  -1.1843   0.0000   0.4221
   2.500   1.0132   0.01173   0.00658  -0.1689  0.7127  1.0000  -1.2523   0.0000   0.4117
   3.000   1.0750   0.01164   0.00642  -0.1704  0.7017  1.0000  -1.3237   0.0000   0.4028
   3.500   1.1341   0.01155   0.00628  -0.1713  0.6884  1.0000  -1.3941   0.0000   0.3946
   4.000   1.1891   0.01157   0.00627  -0.1714  0.6728  1.0000  -1.4648   0.0000   0.3869
   4.500   1.2412   0.01167   0.00635  -0.1709  0.6548  1.0000  -1.5434   0.0000   0.3797
   5.000   1.2930   0.01183   0.00645  -0.1703  0.6351  1.0000  -1.6227   0.0000   0.3730
   5.500   1.3394   0.01214   0.00672  -0.1687  0.6108  1.0000  -1.6986   0.0000   0.3665
   6.000   1.3818   0.01258   0.00707  -0.1664  0.5824  1.0000  -1.7879   0.0000   0.3602
   6.500   1.4203   0.01321   0.00759  -0.1634  0.5533  1.0000  -1.8775   0.0000   0.3540
   7.000   1.4513   0.01399   0.00828  -0.1591  0.5236  1.0000  -1.9644   0.0000   0.3478
   7.500   1.4769   0.01502   0.00919  -0.1541  0.4922  1.0000  -2.0543   0.0000   0.3417
   8.000   1.4998   0.01624   0.01033  -0.1489  0.4621  1.0000  -2.1471   0.0000   0.3359


