XFLR5 v6.06

 Calculated polar for: fab_h_b

 1 1 Reynolds number fixed          Mach number fixed         

 xtrf =   1.000 (top)        1.000 (bottom)
 Mach =   0.000     Re =     0.500 e 6     Ncrit =   9.000

  alpha     CL        CD       CDp       Cm    Top Xtr Bot Xtr   Cpmin    Chinge    XCp    
 ------- -------- --------- --------- -------- ------- ------- -------- --------- ---------
  -8.000  -0.0860   0.01652   0.01042  -0.1792  0.8220  0.0371  -4.0646   0.0000  -1.9185
  -7.500  -0.0348   0.01565   0.00950  -0.1790  0.8174  0.0395  -3.6298   0.0000  -5.0936
  -7.000   0.0189   0.01473   0.00848  -0.1792  0.8127  0.0421  -3.2306   0.0000  10.0416
  -6.500   0.0744   0.01406   0.00769  -0.1796  0.8087  0.0457  -2.9106   0.0000   2.7424
  -6.000   0.1266   0.01340   0.00701  -0.1794  0.8039  0.0498  -2.6190   0.0000   1.7084
  -5.500   0.1818   0.01283   0.00638  -0.1796  0.7994  0.0553  -2.3383   0.0000   1.2643
  -5.000   0.2394   0.01230   0.00579  -0.1803  0.7951  0.0626  -2.0670   0.0000   1.0212
  -4.500   0.2931   0.01187   0.00539  -0.1801  0.7897  0.0719  -1.8114   0.0000   0.8780
  -4.000   0.3492   0.01151   0.00502  -0.1804  0.7847  0.0833  -1.5654   0.0000   0.7765
  -3.500   0.4082   0.01117   0.00468  -0.1813  0.7802  0.0986  -1.3395   0.0000   0.7012
  -3.000   0.4623   0.01087   0.00450  -0.1812  0.7745  0.1220  -1.1330   0.0000   0.6472
  -2.500   0.5195   0.01056   0.00427  -0.1816  0.7689  0.1566  -0.9388   0.0000   0.6033
  -2.000   0.5775   0.01032   0.00411  -0.1822  0.7634  0.1990  -0.8492   0.0000   0.5679
  -1.500   0.6325   0.01004   0.00401  -0.1823  0.7567  0.2551  -0.8875   0.0000   0.5395
  -1.000   0.6918   0.00970   0.00387  -0.1833  0.7511  0.3480  -0.9289   0.0000   0.5152
   0.000   0.8015   0.00884   0.00399  -0.1832  0.7364  0.7116  -1.0178   0.0000   0.4771
   0.500   0.8536   0.00886   0.00411  -0.1822  0.7281  0.7701  -1.0643   0.0000   0.4612
   1.000   0.9094   0.00885   0.00406  -0.1819  0.7203  0.8070  -1.1199   0.0000   0.4471
   1.500   0.9598   0.00883   0.00410  -0.1806  0.7100  0.8336  -1.1723   0.0000   0.4344
   2.000   1.0117   0.00883   0.00412  -0.1797  0.6997  0.8575  -1.2299   0.0000   0.4231
   2.500   1.0617   0.00880   0.00410  -0.1783  0.6874  0.8768  -1.2929   0.0000   0.4128
   3.000   1.1097   0.00879   0.00411  -0.1766  0.6738  0.9006  -1.3550   0.0000   0.4033
   3.500   1.1534   0.00876   0.00414  -0.1740  0.6582  0.9316  -1.4144   0.0000   0.3943
   4.000   1.2052   0.00878   0.00418  -0.1733  0.6394  1.0000  -1.4838   0.0000   0.3865
   4.500   1.2580   0.00908   0.00439  -0.1732  0.6184  1.0000  -1.5632   0.0000   0.3796
   5.000   1.3061   0.00947   0.00470  -0.1721  0.5914  1.0000  -1.6395   0.0000   0.3730
   5.500   1.3494   0.01002   0.00512  -0.1700  0.5614  1.0000  -1.7128   0.0000   0.3665
   6.000   1.3888   0.01065   0.00564  -0.1672  0.5316  1.0000  -1.7995   0.0000   0.3602
   6.500   1.4202   0.01144   0.00630  -0.1630  0.5015  1.0000  -1.8821   0.0000   0.3537
   7.000   1.4486   0.01236   0.00711  -0.1584  0.4701  1.0000  -1.9661   0.0000   0.3475
   7.500   1.4743   0.01345   0.00810  -0.1536  0.4411  1.0000  -2.0563   0.0000   0.3416
   8.000   1.5001   0.01468   0.00927  -0.1492  0.4135  1.0000  -2.1534   0.0000   0.3360


