XFLR5 v6.06

 Calculated polar for: fab_h_b

 1 1 Reynolds number fixed          Mach number fixed         

 xtrf =   1.000 (top)        1.000 (bottom)
 Mach =   0.000     Re =     0.400 e 6     Ncrit =   9.000

  alpha     CL        CD       CDp       Cm    Top Xtr Bot Xtr   Cpmin    Chinge    XCp    
 ------- -------- --------- --------- -------- ------- ------- -------- --------- ---------
  -8.000  -0.0866   0.01914   0.01297  -0.1791  0.8351  0.0401  -3.9875   0.0000  -1.9024
  -7.500  -0.0367   0.01796   0.01173  -0.1789  0.8301  0.0426  -3.5731   0.0000  -4.8090
  -7.000   0.0172   0.01677   0.01032  -0.1792  0.8255  0.0455  -3.1914   0.0000  11.0525
  -6.500   0.0691   0.01591   0.00934  -0.1791  0.8208  0.0492  -2.8801   0.0000   2.9245
  -6.000   0.1216   0.01513   0.00850  -0.1789  0.8156  0.0536  -2.5975   0.0000   1.7652
  -5.500   0.1774   0.01443   0.00773  -0.1793  0.8115  0.0592  -2.3206   0.0000   1.2881
  -5.000   0.2319   0.01386   0.00712  -0.1794  0.8068  0.0668  -2.0653   0.0000   1.0427
  -4.500   0.2856   0.01339   0.00665  -0.1793  0.8006  0.0766  -1.8134   0.0000   0.8915
  -4.000   0.3436   0.01296   0.00619  -0.1799  0.7962  0.0888  -1.5668   0.0000   0.7839
  -3.500   0.3979   0.01263   0.00592  -0.1800  0.7906  0.1046  -1.3523   0.0000   0.7099
  -3.000   0.4537   0.01230   0.00567  -0.1802  0.7847  0.1292  -1.1440   0.0000   0.6527
  -2.500   0.5137   0.01194   0.00539  -0.1812  0.7802  0.1659  -0.9456   0.0000   0.6067
  -2.000   0.5666   0.01171   0.00531  -0.1809  0.7729  0.2100  -0.8407   0.0000   0.5719
  -1.500   0.6254   0.01134   0.00510  -0.1817  0.7672  0.2750  -0.8812   0.0000   0.5420
  -1.000   0.6810   0.01100   0.00508  -0.1821  0.7605  0.3849  -0.9202   0.0000   0.5177
  -0.500   0.7371   0.01035   0.00509  -0.1824  0.7536  0.6094  -0.9643   0.0000   0.4970
   0.000   0.7898   0.01024   0.00524  -0.1814  0.7460  0.7469  -1.0087   0.0000   0.4783
   0.500   0.8434   0.01021   0.00524  -0.1806  0.7383  0.7952  -1.0558   0.0000   0.4619
   1.000   0.8945   0.01022   0.00528  -0.1793  0.7298  0.8307  -1.1082   0.0000   0.4475
   1.500   0.9482   0.01008   0.00511  -0.1784  0.7213  0.8587  -1.1629   0.0000   0.4345
   2.000   0.9956   0.01001   0.00510  -0.1765  0.7105  0.8831  -1.2166   0.0000   0.4229
   2.500   1.0424   0.00988   0.00500  -0.1744  0.6994  0.9086  -1.2771   0.0000   0.4122
   3.000   1.0850   0.00965   0.00482  -0.1713  0.6866  0.9465  -1.3352   0.0000   0.4021
   3.500   1.1449   0.00962   0.00479  -0.1725  0.6719  1.0000  -1.4060   0.0000   0.3941
   4.000   1.2000   0.00976   0.00489  -0.1727  0.6546  1.0000  -1.4775   0.0000   0.3867
   4.500   1.2532   0.00998   0.00504  -0.1725  0.6354  1.0000  -1.5572   0.0000   0.3797
   5.000   1.3024   0.01030   0.00530  -0.1716  0.6123  1.0000  -1.6343   0.0000   0.3730
   5.500   1.3470   0.01074   0.00564  -0.1697  0.5842  1.0000  -1.7087   0.0000   0.3665
   6.000   1.3872   0.01134   0.00612  -0.1671  0.5546  1.0000  -1.7963   0.0000   0.3602
   6.500   1.4212   0.01205   0.00673  -0.1633  0.5250  1.0000  -1.8815   0.0000   0.3539
   7.000   1.4492   0.01297   0.00752  -0.1585  0.4941  1.0000  -1.9651   0.0000   0.3476
   7.500   1.4744   0.01404   0.00850  -0.1536  0.4632  1.0000  -2.0545   0.0000   0.3415
   8.000   1.4973   0.01534   0.00971  -0.1486  0.4352  1.0000  -2.1474   0.0000   0.3358


