XFLR5 v6.06

 Calculated polar for: fab_d_f

 1 1 Reynolds number fixed          Mach number fixed         

 xtrf =   1.000 (top)        1.000 (bottom)
 Mach =   0.000     Re =     0.150 e 6     Ncrit =   9.000

  alpha     CL        CD       CDp       Cm    Top Xtr Bot Xtr   Cpmin    Chinge    XCp    
 ------- -------- --------- --------- -------- ------- ------- -------- --------- ---------
  -8.000  -0.2698   0.09517   0.09151  -0.0639  0.9676  0.0795  -1.9066   0.0000  -0.0027
  -7.500  -0.2171   0.08289   0.07941  -0.0742  0.9436  0.0906  -1.8526   0.0000  -0.1064
  -7.000  -0.2206   0.07660   0.07317  -0.0760  0.9316  0.0973  -1.8776   0.0000  -0.1080
  -6.000  -0.2335   0.06492   0.06123  -0.0919  0.9186  0.1079  -2.1113   0.0000  -0.1571
  -5.500  -0.1596   0.03030   0.02315  -0.1249  0.9126  0.0672  -3.1562   0.0000  -0.5556
  -5.000  -0.1053   0.02819   0.02071  -0.1259  0.9043  0.0755  -2.8128   0.0000  -0.9772
  -4.500  -0.0322   0.02617   0.01830  -0.1297  0.8987  0.0886  -2.4240   0.0000  -3.8767
  -4.000   0.0239   0.02508   0.01700  -0.1303  0.8892  0.1047  -2.0789   0.0000   5.8117
  -3.500   0.0984   0.02390   0.01580  -0.1341  0.8839  0.1307  -1.6697   0.0000   1.6371
  -3.000   0.1502   0.02344   0.01545  -0.1341  0.8736  0.1617  -1.4325   0.0000   1.1565
  -2.500   0.2293   0.02237   0.01463  -0.1388  0.8690  0.2237  -1.1619   0.0000   0.8624
  -2.000   0.2831   0.02201   0.01460  -0.1391  0.8576  0.3076  -0.9555   0.0000   0.7461
  -1.500   0.3684   0.02066   0.01398  -0.1446  0.8541  0.4961  -0.7180   0.0000   0.6450
  -1.000   0.4084   0.02057   0.01459  -0.1410  0.8417  0.7031  -0.6424   0.0000   0.5967
   0.000   0.5069   0.01976   0.01399  -0.1348  0.8225  1.0000  -0.7172   0.0000   0.5155
   0.500   0.5782   0.01966   0.01366  -0.1380  0.8124  1.0000  -0.7702   0.0000   0.4875
   2.500   0.8508   0.01848   0.01203  -0.1459  0.7687  1.0000  -1.0238   0.0000   0.4176
   3.000   0.9148   0.01805   0.01157  -0.1468  0.7547  1.0000  -1.0982   0.0000   0.4059
   3.500   0.9771   0.01769   0.01123  -0.1474  0.7401  1.0000  -1.1771   0.0000   0.3957
   4.000   1.0414   0.01712   0.01066  -0.1481  0.7238  1.0000  -1.2664   0.0000   0.3865
   4.500   1.1056   0.01661   0.01017  -0.1489  0.7066  1.0000  -1.3700   0.0000   0.3783
   5.000   1.1548   0.01656   0.01019  -0.1472  0.6825  1.0000  -1.4710   0.0000   0.3704
   5.500   1.2088   0.01634   0.01001  -0.1462  0.6560  1.0000  -1.5913   0.0000   0.3632
   6.000   1.2602   0.01635   0.01004  -0.1448  0.6257  1.0000  -1.7303   0.0000   0.3565
   6.500   1.3098   0.01652   0.01014  -0.1431  0.5896  1.0000  -1.8994   0.0000   0.3502
   7.000   1.3505   0.01709   0.01070  -0.1401  0.5484  1.0000  -2.1470   0.0000   0.3439
   7.500   1.3878   0.01791   0.01143  -0.1366  0.5050  1.0000  -2.5000   0.0000   0.3379
   8.000   1.4188   0.01899   0.01242  -0.1323  0.4603  1.0000  -2.8675   0.0000   0.3319


