XFLR5 v6.06

 Calculated polar for: fab_b_h

 1 1 Reynolds number fixed          Mach number fixed         

 xtrf =   1.000 (top)        1.000 (bottom)
 Mach =   0.000     Re =     0.350 e 6     Ncrit =   9.000

  alpha     CL        CD       CDp       Cm    Top Xtr Bot Xtr   Cpmin    Chinge    XCp    
 ------- -------- --------- --------- -------- ------- ------- -------- --------- ---------
  -8.000  -0.3415   0.02495   0.02012  -0.1294  0.9438  0.0176  -5.4944   0.0000  -0.1436
  -7.500  -0.2750   0.02057   0.01489  -0.1344  0.9405  0.0196  -5.1650   0.0000  -0.2555
  -7.000  -0.2023   0.01829   0.01235  -0.1392  0.9388  0.0233  -4.6115   0.0000  -0.4586
  -6.500  -0.1487   0.01635   0.01016  -0.1396  0.9298  0.0277  -4.1970   0.0000  -0.7140
  -6.000  -0.0762   0.01487   0.00852  -0.1436  0.9268  0.0363  -3.6285   0.0000  -1.6796
  -5.500  -0.0153   0.01389   0.00747  -0.1451  0.9196  0.0464  -3.1009   0.0000  -9.4133
  -5.000   0.0509   0.01278   0.00637  -0.1477  0.9139  0.0604  -2.5729   0.0000   3.2045
  -4.500   0.1133   0.01192   0.00553  -0.1493  0.9068  0.0824  -2.1171   0.0000   1.5900
  -4.000   0.1767   0.01119   0.00484  -0.1511  0.8993  0.1144  -1.6950   0.0000   1.1173
  -3.500   0.2344   0.01064   0.00440  -0.1518  0.8896  0.1608  -1.3136   0.0000   0.9052
  -3.000   0.2994   0.01005   0.00398  -0.1539  0.8827  0.2309  -1.0232   0.0000   0.7691
  -2.500   0.3537   0.00966   0.00379  -0.1538  0.8714  0.3123  -0.8038   0.0000   0.6883
  -2.000   0.4100   0.00928   0.00366  -0.1541  0.8608  0.4139  -0.6000   0.0000   0.6280
  -1.500   0.4680   0.00890   0.00358  -0.1546  0.8512  0.5361  -0.6332   0.0000   0.5815
  -1.000   0.5242   0.00860   0.00357  -0.1544  0.8401  0.6572  -0.6706   0.0000   0.5449
  -0.500   0.5757   0.00849   0.00364  -0.1531  0.8276  0.7491  -0.7080   0.0000   0.5156
   0.000   0.6259   0.00843   0.00368  -0.1513  0.8145  0.8170  -0.7478   0.0000   0.4909
   0.500   0.6735   0.00837   0.00368  -0.1490  0.8008  0.8714  -0.7920   0.0000   0.4697
   1.000   0.7152   0.00822   0.00359  -0.1452  0.7867  0.9358  -0.8359   0.0000   0.4509
   1.500   0.7788   0.00814   0.00345  -0.1467  0.7708  1.0000  -0.8987   0.0000   0.4358
   2.000   0.8357   0.00824   0.00347  -0.1471  0.7543  1.0000  -0.9619   0.0000   0.4228
   2.500   0.8911   0.00836   0.00350  -0.1469  0.7349  1.0000  -1.0316   0.0000   0.4112
   3.000   0.9438   0.00851   0.00363  -0.1463  0.7135  1.0000  -1.1085   0.0000   0.4008
   3.500   0.9959   0.00870   0.00376  -0.1455  0.6881  1.0000  -1.2008   0.0000   0.3913
   4.000   1.0468   0.00895   0.00396  -0.1444  0.6600  1.0000  -1.3041   0.0000   0.3826
   4.500   1.0949   0.00930   0.00423  -0.1428  0.6246  1.0000  -1.4226   0.0000   0.3745
   5.000   1.1412   0.00976   0.00459  -0.1409  0.5847  1.0000  -1.5632   0.0000   0.3670
   5.500   1.1847   0.01036   0.00505  -0.1386  0.5395  1.0000  -1.7398   0.0000   0.3598
   6.000   1.2249   0.01112   0.00565  -0.1357  0.4891  1.0000  -2.0088   0.0000   0.3530
   6.500   1.2621   0.01203   0.00637  -0.1323  0.4342  1.0000  -2.4058   0.0000   0.3464
   7.000   1.2955   0.01309   0.00723  -0.1284  0.3773  1.0000  -2.8088   0.0000   0.3400
   7.500   1.3238   0.01433   0.00823  -0.1237  0.3186  1.0000  -3.2068   0.0000   0.3337
   8.000   1.3506   0.01574   0.00941  -0.1191  0.2619  1.0000  -3.6158   0.0000   0.3277


