XFLR5 v6.06

 Calculated polar for: fab_h_b

 1 1 Reynolds number fixed          Mach number fixed         

 xtrf =   1.000 (top)        1.000 (bottom)
 Mach =   0.000     Re =     0.600 e 6     Ncrit =   9.000

  alpha     CL        CD       CDp       Cm    Top Xtr Bot Xtr   Cpmin    Chinge    XCp    
 ------- -------- --------- --------- -------- ------- ------- -------- --------- ---------
  -8.000  -0.0872   0.01490   0.00901  -0.1790  0.8120  0.0347  -4.1104   0.0000  -1.8881
  -7.500  -0.0334   0.01414   0.00807  -0.1792  0.8081  0.0372  -3.6665   0.0000  -5.3129
  -7.000   0.0193   0.01344   0.00733  -0.1791  0.8033  0.0398  -3.2594   0.0000   9.8740
  -6.500   0.0742   0.01279   0.00663  -0.1794  0.7990  0.0431  -2.9425   0.0000   2.7462
  -6.000   0.1308   0.01227   0.00601  -0.1799  0.7951  0.0472  -2.6317   0.0000   1.6659
  -5.500   0.1849   0.01176   0.00548  -0.1799  0.7907  0.0524  -2.3512   0.0000   1.2493
  -5.000   0.2404   0.01127   0.00500  -0.1802  0.7857  0.0594  -2.0783   0.0000   1.0174
  -4.500   0.2981   0.01085   0.00454  -0.1808  0.7814  0.0684  -1.8090   0.0000   0.8695
  -4.000   0.3537   0.01054   0.00426  -0.1810  0.7766  0.0792  -1.5622   0.0000   0.7712
  -3.500   0.4100   0.01022   0.00397  -0.1812  0.7712  0.0934  -1.3411   0.0000   0.6991
  -3.000   0.4683   0.00991   0.00370  -0.1819  0.7667  0.1164  -1.1251   0.0000   0.6436
  -2.500   0.5239   0.00968   0.00357  -0.1820  0.7608  0.1492  -0.9333   0.0000   0.6010
  -2.000   0.5808   0.00941   0.00340  -0.1824  0.7547  0.1891  -0.8524   0.0000   0.5664
  -1.500   0.6392   0.00921   0.00330  -0.1832  0.7495  0.2414  -0.8928   0.0000   0.5377
  -1.000   0.6940   0.00890   0.00323  -0.1832  0.7421  0.3158  -0.9315   0.0000   0.5141
  -0.500   0.7523   0.00851   0.00314  -0.1840  0.7355  0.4483  -0.9767   0.0000   0.4939
   0.000   0.8054   0.00802   0.00330  -0.1837  0.7278  0.6700  -1.0213   0.0000   0.4766
   0.500   0.8614   0.00799   0.00333  -0.1835  0.7205  0.7503  -1.0706   0.0000   0.4608
   1.000   0.9138   0.00799   0.00342  -0.1827  0.7110  0.7887  -1.1239   0.0000   0.4469
   1.500   0.9674   0.00802   0.00346  -0.1821  0.7016  0.8159  -1.1784   0.0000   0.4344
   2.000   1.0198   0.00805   0.00348  -0.1812  0.6902  0.8387  -1.2370   0.0000   0.4232
   2.500   1.0718   0.00811   0.00353  -0.1804  0.6772  0.8572  -1.3015   0.0000   0.4131
   3.000   1.1209   0.00816   0.00362  -0.1790  0.6626  0.8763  -1.3644   0.0000   0.4038
   3.500   1.1685   0.00825   0.00373  -0.1773  0.6456  0.8994  -1.4267   0.0000   0.3951
   4.000   1.2123   0.00835   0.00387  -0.1748  0.6260  0.9272  -1.4909   0.0000   0.3869
   4.500   1.2600   0.00852   0.00401  -0.1734  0.6021  1.0000  -1.5662   0.0000   0.3796
   5.000   1.3072   0.00900   0.00436  -0.1722  0.5731  1.0000  -1.6417   0.0000   0.3729
   5.500   1.3504   0.00957   0.00482  -0.1702  0.5422  1.0000  -1.7149   0.0000   0.3665
   6.000   1.3877   0.01025   0.00536  -0.1670  0.5126  1.0000  -1.7995   0.0000   0.3601
   6.500   1.4202   0.01104   0.00603  -0.1630  0.4819  1.0000  -1.8833   0.0000   0.3537
   7.000   1.4492   0.01195   0.00684  -0.1585  0.4511  1.0000  -1.9679   0.0000   0.3476
   7.500   1.4765   0.01302   0.00781  -0.1541  0.4232  1.0000  -2.0602   0.0000   0.3417
   8.000   1.5032   0.01423   0.00895  -0.1498  0.3953  1.0000  -2.1590   0.0000   0.3362


