XFLR5 v6.06

 Calculated polar for: fab_b_h

 1 1 Reynolds number fixed          Mach number fixed         

 xtrf =   1.000 (top)        1.000 (bottom)
 Mach =   0.000     Re =     0.400 e 6     Ncrit =   9.000

  alpha     CL        CD       CDp       Cm    Top Xtr Bot Xtr   Cpmin    Chinge    XCp    
 ------- -------- --------- --------- -------- ------- ------- -------- --------- ---------
  -8.000  -0.3187   0.02143   0.01632  -0.1348  0.9431  0.0164  -5.6230   0.0000  -0.1888
  -7.500  -0.2497   0.01836   0.01278  -0.1394  0.9406  0.0184  -5.1510   0.0000  -0.3266
  -6.500  -0.1235   0.01468   0.00861  -0.1442  0.9293  0.0273  -4.1455   0.0000  -0.9487
  -6.000  -0.0525   0.01340   0.00725  -0.1480  0.9257  0.0357  -3.5554   0.0000  -2.6334
  -5.500   0.0039   0.01255   0.00637  -0.1485  0.9165  0.0452  -3.0392   0.0000  39.4747
  -5.000   0.0721   0.01158   0.00535  -0.1515  0.9113  0.0602  -2.5000   0.0000   2.3892
  -4.500   0.1272   0.01091   0.00470  -0.1516  0.9012  0.0813  -2.0750   0.0000   1.4606
  -4.000   0.1867   0.01033   0.00415  -0.1526  0.8924  0.1117  -1.6648   0.0000   1.0784
  -3.500   0.2478   0.00978   0.00370  -0.1539  0.8837  0.1587  -1.2727   0.0000   0.8783
  -3.000   0.3026   0.00939   0.00346  -0.1539  0.8732  0.2211  -1.0178   0.0000   0.7636
  -2.500   0.3598   0.00900   0.00326  -0.1544  0.8631  0.2999  -0.7927   0.0000   0.6825
  -2.000   0.4192   0.00863   0.00308  -0.1553  0.8537  0.3971  -0.6038   0.0000   0.6225
  -1.500   0.4733   0.00831   0.00305  -0.1550  0.8423  0.5097  -0.6367   0.0000   0.5788
  -1.000   0.5273   0.00804   0.00308  -0.1546  0.8302  0.6295  -0.6729   0.0000   0.5435
  -0.500   0.5807   0.00791   0.00315  -0.1538  0.8186  0.7246  -0.7114   0.0000   0.5145
   0.000   0.6327   0.00784   0.00319  -0.1525  0.8056  0.7971  -0.7524   0.0000   0.4900
   0.500   0.6831   0.00781   0.00321  -0.1508  0.7926  0.8500  -0.7981   0.0000   0.4693
   1.000   0.7277   0.00773   0.00321  -0.1478  0.7777  0.9057  -0.8443   0.0000   0.4511
   1.500   0.7817   0.00757   0.00306  -0.1470  0.7616  1.0000  -0.9014   0.0000   0.4354
   2.000   0.8380   0.00768   0.00310  -0.1472  0.7441  1.0000  -0.9644   0.0000   0.4225
   2.500   0.8928   0.00781   0.00315  -0.1471  0.7240  1.0000  -1.0336   0.0000   0.4110
   3.000   0.9463   0.00799   0.00328  -0.1466  0.7025  1.0000  -1.1115   0.0000   0.4007
   3.500   0.9981   0.00821   0.00342  -0.1458  0.6760  1.0000  -1.2037   0.0000   0.3912
   4.000   1.0483   0.00850   0.00364  -0.1446  0.6463  1.0000  -1.3069   0.0000   0.3826
   4.500   1.0962   0.00888   0.00393  -0.1430  0.6092  1.0000  -1.4254   0.0000   0.3745
   5.000   1.1421   0.00938   0.00432  -0.1411  0.5678  1.0000  -1.5659   0.0000   0.3670
   5.500   1.1851   0.01002   0.00480  -0.1387  0.5207  1.0000  -1.7423   0.0000   0.3598
   6.000   1.2253   0.01080   0.00540  -0.1358  0.4697  1.0000  -2.0167   0.0000   0.3530
   6.500   1.2627   0.01172   0.00613  -0.1326  0.4144  1.0000  -2.4154   0.0000   0.3465
   7.000   1.2964   0.01279   0.00698  -0.1288  0.3565  1.0000  -2.8202   0.0000   0.3402
   7.500   1.3260   0.01401   0.00796  -0.1244  0.2987  1.0000  -3.2262   0.0000   0.3340
   8.000   1.3540   0.01541   0.00912  -0.1199  0.2425  1.0000  -3.6446   0.0000   0.3281


