XFLR5 v6.06

 Calculated polar for: fab_h_b

 1 1 Reynolds number fixed          Mach number fixed         

 xtrf =   1.000 (top)        1.000 (bottom)
 Mach =   0.000     Re =     0.550 e 6     Ncrit =   9.000

  alpha     CL        CD       CDp       Cm    Top Xtr Bot Xtr   Cpmin    Chinge    XCp    
 ------- -------- --------- --------- -------- ------- ------- -------- --------- ---------
  -8.000  -0.0873   0.01570   0.00976  -0.1789  0.8165  0.0358  -4.0882   0.0000  -1.8831
  -7.500  -0.0339   0.01478   0.00871  -0.1792  0.8123  0.0382  -3.6472   0.0000  -5.2373
  -7.000   0.0202   0.01400   0.00778  -0.1794  0.8080  0.0409  -3.2456   0.0000   9.4611
  -6.500   0.0732   0.01337   0.00709  -0.1793  0.8034  0.0443  -2.9347   0.0000   2.7777
  -6.000   0.1283   0.01274   0.00642  -0.1795  0.7990  0.0484  -2.6296   0.0000   1.6902
  -5.500   0.1854   0.01224   0.00586  -0.1802  0.7951  0.0537  -2.3398   0.0000   1.2478
  -5.000   0.2393   0.01180   0.00540  -0.1800  0.7900  0.0609  -2.0754   0.0000   1.0206
  -4.500   0.2951   0.01132   0.00494  -0.1804  0.7850  0.0700  -1.8114   0.0000   0.8742
  -4.000   0.3534   0.01097   0.00457  -0.1811  0.7808  0.0813  -1.5596   0.0000   0.7719
  -3.500   0.4083   0.01068   0.00432  -0.1810  0.7753  0.0958  -1.3422   0.0000   0.7006
  -3.000   0.4650   0.01034   0.00406  -0.1815  0.7701  0.1190  -1.1297   0.0000   0.6454
  -2.500   0.5242   0.01009   0.00385  -0.1823  0.7651  0.1533  -0.9319   0.0000   0.6014
  -2.000   0.5784   0.00984   0.00374  -0.1822  0.7585  0.1936  -0.8504   0.0000   0.5673
  -1.500   0.6364   0.00956   0.00359  -0.1828  0.7529  0.2482  -0.8906   0.0000   0.5384
  -1.000   0.6926   0.00928   0.00355  -0.1831  0.7465  0.3290  -0.9301   0.0000   0.5147
  -0.500   0.7491   0.00881   0.00347  -0.1836  0.7389  0.4795  -0.9742   0.0000   0.4945
   0.000   0.8036   0.00840   0.00362  -0.1835  0.7320  0.6928  -1.0196   0.0000   0.4768
   0.500   0.8577   0.00836   0.00367  -0.1829  0.7239  0.7600  -1.0676   0.0000   0.4610
   1.000   0.9111   0.00839   0.00373  -0.1822  0.7152  0.7971  -1.1216   0.0000   0.4470
   1.500   0.9652   0.00838   0.00370  -0.1816  0.7062  0.8239  -1.1765   0.0000   0.4344
   2.000   1.0160   0.00839   0.00376  -0.1805  0.6946  0.8473  -1.2337   0.0000   0.4232
   2.500   1.0667   0.00841   0.00380  -0.1794  0.6816  0.8659  -1.2972   0.0000   0.4130
   3.000   1.1160   0.00845   0.00387  -0.1780  0.6676  0.8873  -1.3602   0.0000   0.4036
   3.500   1.1618   0.00848   0.00393  -0.1758  0.6514  0.9126  -1.4212   0.0000   0.3947
   4.000   1.2047   0.00851   0.00397  -0.1731  0.6330  0.9529  -1.4841   0.0000   0.3864
   4.500   1.2593   0.00876   0.00419  -0.1733  0.6098  1.0000  -1.5651   0.0000   0.3796
   5.000   1.3072   0.00919   0.00451  -0.1722  0.5819  1.0000  -1.6412   0.0000   0.3730
   5.500   1.3503   0.00976   0.00495  -0.1702  0.5513  1.0000  -1.7143   0.0000   0.3665
   6.000   1.3889   0.01041   0.00548  -0.1673  0.5217  1.0000  -1.8002   0.0000   0.3601
   6.500   1.4206   0.01120   0.00614  -0.1631  0.4914  1.0000  -1.8832   0.0000   0.3537
   7.000   1.4494   0.01212   0.00695  -0.1586  0.4600  1.0000  -1.9677   0.0000   0.3476
   7.500   1.4758   0.01320   0.00793  -0.1539  0.4319  1.0000  -2.0589   0.0000   0.3416
   8.000   1.5014   0.01445   0.00910  -0.1495  0.4042  1.0000  -2.1559   0.0000   0.3361


