XFLR5 v6.06

 Calculated polar for: fab_d_f

 1 1 Reynolds number fixed          Mach number fixed         

 xtrf =   1.000 (top)        1.000 (bottom)
 Mach =   0.000     Re =     0.450 e 6     Ncrit =   9.000

  alpha     CL        CD       CDp       Cm    Top Xtr Bot Xtr   Cpmin    Chinge    XCp    
 ------- -------- --------- --------- -------- ------- ------- -------- --------- ---------
  -8.000  -0.1886   0.01586   0.01018  -0.1615  0.9035  0.0256  -5.0908   0.0000  -0.6363
  -7.500  -0.1315   0.01477   0.00891  -0.1627  0.8964  0.0301  -4.5266   0.0000  -1.0269
  -7.000  -0.0803   0.01400   0.00796  -0.1624  0.8871  0.0349  -4.0067   0.0000  -1.8303
  -6.500  -0.0254   0.01324   0.00713  -0.1628  0.8797  0.0404  -3.4815   0.0000  -6.3357
  -6.000   0.0286   0.01249   0.00627  -0.1628  0.8715  0.0467  -3.0135   0.0000   6.0805
  -5.500   0.0832   0.01185   0.00556  -0.1630  0.8643  0.0546  -2.5893   0.0000   2.2512
  -5.000   0.1386   0.01125   0.00494  -0.1632  0.8569  0.0656  -2.1791   0.0000   1.4505
  -4.500   0.1936   0.01078   0.00446  -0.1633  0.8495  0.0806  -1.7892   0.0000   1.1081
  -4.000   0.2500   0.01035   0.00402  -0.1636  0.8415  0.1008  -1.4957   0.0000   0.9145
  -3.500   0.3048   0.01000   0.00374  -0.1637  0.8339  0.1311  -1.2503   0.0000   0.7939
  -3.000   0.3619   0.00964   0.00349  -0.1642  0.8266  0.1768  -1.0205   0.0000   0.7085
  -2.500   0.4166   0.00935   0.00334  -0.1641  0.8178  0.2349  -0.8123   0.0000   0.6474
  -2.000   0.4747   0.00905   0.00319  -0.1648  0.8105  0.3131  -0.6859   0.0000   0.5994
  -1.500   0.5287   0.00873   0.00317  -0.1647  0.8013  0.4160  -0.7200   0.0000   0.5628
  -1.000   0.5846   0.00837   0.00316  -0.1649  0.7924  0.5579  -0.7583   0.0000   0.5324
  -0.500   0.6385   0.00813   0.00326  -0.1644  0.7830  0.6898  -0.7986   0.0000   0.5070
   0.000   0.6906   0.00808   0.00334  -0.1633  0.7721  0.7650  -0.8393   0.0000   0.4853
   0.500   0.7434   0.00808   0.00339  -0.1623  0.7623  0.8165  -0.8881   0.0000   0.4665
   1.000   0.7954   0.00806   0.00338  -0.1611  0.7508  0.8542  -0.9373   0.0000   0.4502
   1.500   0.8424   0.00801   0.00339  -0.1589  0.7374  0.8922  -0.9906   0.0000   0.4356
   2.000   0.8855   0.00788   0.00334  -0.1557  0.7235  0.9383  -1.0436   0.0000   0.4223
   2.500   0.9453   0.00785   0.00327  -0.1566  0.7072  1.0000  -1.1092   0.0000   0.4115
   3.000   1.0004   0.00799   0.00338  -0.1567  0.6889  1.0000  -1.1823   0.0000   0.4019
   3.500   1.0539   0.00818   0.00352  -0.1564  0.6682  1.0000  -1.2551   0.0000   0.3930
   4.000   1.1049   0.00843   0.00369  -0.1555  0.6415  1.0000  -1.3406   0.0000   0.3847
   4.500   1.1547   0.00876   0.00396  -0.1544  0.6138  1.0000  -1.4364   0.0000   0.3771
   5.000   1.2006   0.00923   0.00430  -0.1526  0.5771  1.0000  -1.5399   0.0000   0.3698
   5.500   1.2447   0.00980   0.00475  -0.1505  0.5388  1.0000  -1.6535   0.0000   0.3630
   6.000   1.2853   0.01051   0.00530  -0.1477  0.4985  1.0000  -1.7873   0.0000   0.3564
   6.500   1.3232   0.01131   0.00596  -0.1446  0.4564  1.0000  -1.9507   0.0000   0.3500
   7.000   1.3566   0.01219   0.00671  -0.1407  0.4138  1.0000  -2.2146   0.0000   0.3437
   7.500   1.3866   0.01322   0.00759  -0.1363  0.3714  1.0000  -2.5649   0.0000   0.3376
   8.000   1.4148   0.01439   0.00863  -0.1318  0.3294  1.0000  -2.9270   0.0000   0.3317


