XFLR5 v6.06

 Calculated polar for: fab_h_b

 1 1 Reynolds number fixed          Mach number fixed         

 xtrf =   1.000 (top)        1.000 (bottom)
 Mach =   0.000     Re =     0.200 e 6     Ncrit =   9.000

  alpha     CL        CD       CDp       Cm    Top Xtr Bot Xtr   Cpmin    Chinge    XCp    
 ------- -------- --------- --------- -------- ------- ------- -------- --------- ---------
  -7.500  -0.0535   0.04262   0.03817  -0.1659  0.8769  0.0616  -2.8372   0.0000  -2.9701
  -7.000  -0.0394   0.03167   0.02584  -0.1702  0.8686  0.0601  -3.0092   0.0000  -4.2255
  -6.500  -0.0109   0.01986   0.01393  -0.1616  0.8546  0.0634  -2.6921   0.0000  -15.0315
  -5.000   0.1400   0.02402   0.01656  -0.1682  0.8411  0.0795  -2.1557   0.0000   1.4847
  -4.000   0.2449   0.02253   0.01490  -0.1677  0.8271  0.1010  -1.7183   0.0000   0.9503
  -3.500   0.3163   0.02153   0.01384  -0.1706  0.8243  0.1199  -1.4698   0.0000   0.7995
  -2.500   0.4230   0.02084   0.01337  -0.1704  0.8101  0.1741  -1.0847   0.0000   0.6583
  -2.000   0.4629   0.02099   0.01370  -0.1682  0.7986  0.2157  -0.9314   0.0000   0.6172
  -1.500   0.5367   0.02002   0.01299  -0.1715  0.7955  0.2975  -0.8144   0.0000   0.5717
  -0.500   0.6429   0.01888   0.01326  -0.1698  0.7806  0.7347  -0.8943   0.0000   0.5143
   0.000   0.6767   0.01926   0.01373  -0.1649  0.7687  0.8185  -0.9255   0.0000   0.4928
   0.500   0.7305   0.01859   0.01303  -0.1625  0.7650  0.8801  -0.9721   0.0000   0.4707
   1.000   0.7550   0.01846   0.01295  -0.1556  0.7525  0.9422  -1.0048   0.0000   0.4535
   2.000   0.8981   0.01762   0.01188  -0.1616  0.7369  1.0000  -1.1349   0.0000   0.4258
   2.500   0.9557   0.01755   0.01174  -0.1622  0.7251  1.0000  -1.1997   0.0000   0.4148
   3.000   1.0196   0.01713   0.01125  -0.1635  0.7145  1.0000  -1.2724   0.0000   0.4048
   3.500   1.0934   0.01638   0.01040  -0.1665  0.7066  1.0000  -1.3541   0.0000   0.3959
   4.000   1.1500   0.01612   0.01012  -0.1665  0.6929  1.0000  -1.4234   0.0000   0.3877
   4.500   1.2081   0.01577   0.00973  -0.1667  0.6780  1.0000  -1.5072   0.0000   0.3802
   5.000   1.2653   0.01552   0.00946  -0.1668  0.6620  1.0000  -1.5911   0.0000   0.3733
   5.500   1.3098   0.01566   0.00964  -0.1648  0.6409  1.0000  -1.6644   0.0000   0.3665
   6.000   1.3622   0.01567   0.00959  -0.1640  0.6193  1.0000  -1.7609   0.0000   0.3603
   6.500   1.4040   0.01597   0.00987  -0.1615  0.5915  1.0000  -1.8532   0.0000   0.3541
   7.000   1.4445   0.01648   0.01030  -0.1588  0.5628  1.0000  -1.9493   0.0000   0.3482
   7.500   1.4782   0.01723   0.01097  -0.1550  0.5333  1.0000  -2.0483   0.0000   0.3423
   8.000   1.5068   0.01823   0.01184  -0.1505  0.5020  1.0000  -2.1486   0.0000   0.3366


