XFLR5 v6.06

 Calculated polar for: fab_f_d

 1 1 Reynolds number fixed          Mach number fixed         

 xtrf =   1.000 (top)        1.000 (bottom)
 Mach =   0.000     Re =     0.050 e 6     Ncrit =   9.000

  alpha     CL        CD       CDp       Cm    Top Xtr Bot Xtr   Cpmin    Chinge    XCp    
 ------- -------- --------- --------- -------- ------- ------- -------- --------- ---------
  -8.000  -0.3424   0.13158   0.12614  -0.0161  1.0000  0.2117  -1.4008   0.0000   0.1930
  -7.500  -0.3757   0.12956   0.12426  -0.0143  1.0000  0.2217  -1.4785   0.0000   0.2036
  -7.000  -0.3854   0.12491   0.11971  -0.0114  1.0000  0.2349  -1.4839   0.0000   0.2129
  -6.500  -0.3961   0.12019   0.11509  -0.0082  1.0000  0.2483  -1.4871   0.0000   0.2225
  -6.000  -0.4102   0.11560   0.11060  -0.0045  1.0000  0.2618  -1.4929   0.0000   0.2329
  -5.500  -0.4334   0.11152   0.10664  -0.0004  1.0000  0.2761  -1.5155   0.0000   0.2438
  -5.000  -0.4338   0.10565   0.10085   0.0033  1.0000  0.2944  -1.4800   0.0000   0.2526
  -4.500  -0.4441   0.10075   0.09602   0.0060  1.0000  0.3162  -1.4707   0.0000   0.2591
  -4.000  -0.4785   0.09292   0.08794   0.0052  1.0000  0.3448  -1.6019   0.0000   0.2560
  -3.500  -0.4748   0.08763   0.08269   0.0077  1.0000  0.3826  -1.5513   0.0000   0.2616
  -3.000  -0.4680   0.08286   0.07796   0.0123  1.0000  0.4295  -1.4781   0.0000   0.2719
  -2.500  -0.3739   0.06810   0.06264  -0.0263  1.0000  0.3528  -1.5172   0.0000   0.1749
  -2.000  -0.1455   0.04544   0.03634  -0.0833  1.0000  0.2053  -1.6651   0.0000  -0.3358
  -1.500  -0.0899   0.04400   0.03442  -0.0861  1.0000  0.2307  -1.5237   0.0000  -0.7255
  -1.000  -0.0382   0.04343   0.03354  -0.0878  1.0000  0.2662  -1.3851   0.0000  -2.0816
  -0.500   0.0117   0.04353   0.03356  -0.0890  1.0000  0.3206  -1.2383   0.0000   7.9234
   0.000   0.0620   0.04405   0.03440  -0.0901  1.0000  0.4172  -1.0914   0.0000   1.7172
   0.500   0.0967   0.04385   0.03612  -0.0849  1.0000  0.7769  -0.9728   0.0000   1.1341
   1.000   0.1180   0.04439   0.03612  -0.0825  1.0000  1.0000  -0.8777   0.0000   0.9516
   1.500   0.1598   0.04712   0.03826  -0.0843  1.0000  1.0000  -0.7423   0.0000   0.7768
   2.000   0.1984   0.05005   0.04078  -0.0857  1.0000  1.0000  -0.6167   0.0000   0.6795
   2.500   0.2563   0.05432   0.04470  -0.0909  0.9875  1.0000  -0.5546   0.0000   0.6012
   3.000   0.3257   0.05920   0.04928  -0.0981  0.9582  1.0000  -0.6016   0.0000   0.5468
   3.500   0.3983   0.06429   0.05413  -0.1052  0.9250  1.0000  -0.6545   0.0000   0.5089
   4.000   0.5311   0.06539   0.05491  -0.1140  0.8029  1.0000  -0.7685   0.0000   0.4589
   4.500   0.5953   0.06778   0.05721  -0.1164  0.7682  1.0000  -0.8274   0.0000   0.4391
   5.000   0.6463   0.07037   0.05978  -0.1175  0.7388  1.0000  -0.8822   0.0000   0.4247
   5.500   0.6896   0.07320   0.06265  -0.1179  0.7113  1.0000  -0.9295   0.0000   0.4132
   6.000   0.7340   0.07599   0.06551  -0.1182  0.6840  1.0000  -0.9797   0.0000   0.4027
   6.500   0.7802   0.07866   0.06825  -0.1185  0.6569  1.0000  -1.0395   0.0000   0.3928
   7.000   0.8392   0.08068   0.07041  -0.1194  0.6322  1.0000  -1.1222   0.0000   0.3825
   7.500   0.8657   0.08448   0.07437  -0.1185  0.6063  1.0000  -1.1669   0.0000   0.3765
   8.000   0.8910   0.08861   0.07867  -0.1177  0.5806  1.0000  -1.2131   0.0000   0.3710


