XFLR5 v6.06

 Calculated polar for: fab_b_h

 1 1 Reynolds number fixed          Mach number fixed         

 xtrf =   1.000 (top)        1.000 (bottom)
 Mach =   0.000     Re =     0.100 e 6     Ncrit =   9.000

  alpha     CL        CD       CDp       Cm    Top Xtr Bot Xtr   Cpmin    Chinge    XCp    
 ------- -------- --------- --------- -------- ------- ------- -------- --------- ---------
  -8.000  -0.3961   0.10706   0.10280  -0.0271  1.0000  0.1001  -1.7633   0.0000   0.1733
  -7.500  -0.4182   0.10364   0.09951  -0.0239  1.0000  0.1047  -1.8109   0.0000   0.1856
  -6.500  -0.4162   0.09575   0.09209  -0.0154  1.0000  0.1184  -1.7149   0.0000   0.2083
  -6.000  -0.4202   0.08856   0.08497  -0.0197  0.9937  0.1258  -1.7744   0.0000   0.1989
  -5.500  -0.4572   0.07975   0.07593  -0.0344  0.9944  0.1322  -2.0817   0.0000   0.1702
  -5.000  -0.4020   0.06888   0.06481  -0.0503  0.9832  0.1520  -2.0981   0.0000   0.1199
  -4.500  -0.2519   0.02605   0.01899  -0.0867  0.9695  0.0799  -2.8828   0.0000  -0.1025
  -4.000  -0.1923   0.03068   0.02242  -0.0926  0.9718  0.0933  -2.7257   0.0000  -0.2432
  -3.500  -0.1162   0.02870   0.02007  -0.0973  0.9625  0.1172  -2.3312   0.0000  -0.6046
  -3.000  -0.0408   0.02752   0.01881  -0.1018  0.9530  0.1568  -1.9523   0.0000  -2.2885
  -2.500   0.0258   0.02670   0.01814  -0.1048  0.9414  0.2150  -1.5829   0.0000   4.3662
  -2.000   0.0934   0.02608   0.01790  -0.1081  0.9295  0.3133  -1.2196   0.0000   1.4198
  -1.500   0.1594   0.02558   0.01813  -0.1108  0.9173  0.4842  -0.9738   0.0000   0.9507
  -1.000   0.2125   0.02536   0.01874  -0.1093  0.9042  0.7249  -0.7695   0.0000   0.7678
  -0.500   0.2513   0.02507   0.01870  -0.1047  0.8886  1.0000  -0.6072   0.0000   0.6680
   0.000   0.3246   0.02570   0.01885  -0.1091  0.8741  1.0000  -0.5520   0.0000   0.5863
   0.500   0.3946   0.02625   0.01908  -0.1124  0.8591  1.0000  -0.5994   0.0000   0.5341
   1.000   0.4627   0.02674   0.01934  -0.1152  0.8440  1.0000  -0.6506   0.0000   0.4973
   1.500   0.5316   0.02706   0.01951  -0.1177  0.8286  1.0000  -0.7057   0.0000   0.4691
   2.000   0.6023   0.02714   0.01950  -0.1202  0.8133  1.0000  -0.7702   0.0000   0.4466
   2.500   0.6729   0.02704   0.01937  -0.1223  0.7981  1.0000  -0.8373   0.0000   0.4283
   3.000   0.7468   0.02651   0.01888  -0.1245  0.7832  1.0000  -0.9188   0.0000   0.4127
   3.500   0.8245   0.02561   0.01804  -0.1270  0.7684  1.0000  -1.0112   0.0000   0.3995
   4.000   0.9037   0.02449   0.01704  -0.1294  0.7531  1.0000  -1.1242   0.0000   0.3882
   4.500   0.9856   0.02300   0.01571  -0.1320  0.7368  1.0000  -1.2587   0.0000   0.3782
   5.000   1.0452   0.02238   0.01526  -0.1312  0.7116  1.0000  -1.3904   0.0000   0.3693
   5.500   1.1138   0.02130   0.01435  -0.1316  0.6848  1.0000  -1.5663   0.0000   0.3613
   6.000   1.1795   0.02039   0.01357  -0.1315  0.6516  1.0000  -1.8015   0.0000   0.3539
   6.500   1.2334   0.02009   0.01334  -0.1296  0.6092  1.0000  -2.1669   0.0000   0.3469
   7.000   1.2827   0.02021   0.01343  -0.1272  0.5596  1.0000  -2.6188   0.0000   0.3403
   7.500   1.3209   0.02089   0.01404  -0.1232  0.5023  1.0000  -3.0491   0.0000   0.3337
   8.000   1.3499   0.02205   0.01508  -0.1181  0.4406  1.0000  -3.4530   0.0000   0.3271


