XFLR5 v6.06

 Calculated polar for: fab_b_h

 1 1 Reynolds number fixed          Mach number fixed         

 xtrf =   1.000 (top)        1.000 (bottom)
 Mach =   0.000     Re =     0.300 e 6     Ncrit =   9.000

  alpha     CL        CD       CDp       Cm    Top Xtr Bot Xtr   Cpmin    Chinge    XCp    
 ------- -------- --------- --------- -------- ------- ------- -------- --------- ---------
  -7.500  -0.3081   0.02494   0.01968  -0.1274  0.9412  0.0210  -5.0215   0.0000  -0.1781
  -7.000  -0.2372   0.02105   0.01497  -0.1327  0.9388  0.0246  -4.6512   0.0000  -0.3271
  -6.500  -0.1852   0.01886   0.01255  -0.1329  0.9296  0.0283  -4.2578   0.0000  -0.4879
  -6.000  -0.1115   0.01697   0.01043  -0.1372  0.9270  0.0366  -3.7285   0.0000  -1.0113
  -5.500  -0.0347   0.01555   0.00893  -0.1420  0.9251  0.0478  -3.1467   0.0000  -3.9331
  -5.000   0.0194   0.01455   0.00789  -0.1421  0.9155  0.0602  -2.6821   0.0000   7.6998
  -4.500   0.0929   0.01336   0.00673  -0.1461  0.9122  0.0831  -2.1786   0.0000   1.8481
  -4.000   0.1507   0.01265   0.00606  -0.1468  0.9031  0.1135  -1.7786   0.0000   1.2381
  -3.500   0.2216   0.01177   0.00532  -0.1501  0.8979  0.1641  -1.3519   0.0000   0.9355
  -3.000   0.2780   0.01125   0.00499  -0.1505  0.8879  0.2317  -1.0672   0.0000   0.7969
  -2.500   0.3418   0.01067   0.00464  -0.1524  0.8804  0.3235  -0.8257   0.0000   0.6993
  -2.000   0.4011   0.01017   0.00442  -0.1532  0.8704  0.4355  -0.6152   0.0000   0.6342
  -1.500   0.4563   0.00980   0.00440  -0.1530  0.8596  0.5632  -0.6259   0.0000   0.5868
  -1.000   0.5119   0.00951   0.00441  -0.1526  0.8490  0.6842  -0.6629   0.0000   0.5486
  -0.500   0.5667   0.00934   0.00438  -0.1517  0.8380  0.7745  -0.7022   0.0000   0.5175
   0.000   0.6163   0.00925   0.00436  -0.1497  0.8258  0.8405  -0.7415   0.0000   0.4920
   0.500   0.6597   0.00911   0.00428  -0.1462  0.8117  0.9000  -0.7833   0.0000   0.4701
   1.000   0.7164   0.00888   0.00406  -0.1458  0.7980  1.0000  -0.8355   0.0000   0.4515
   1.500   0.7755   0.00893   0.00400  -0.1466  0.7824  1.0000  -0.8954   0.0000   0.4365
   2.000   0.8331   0.00901   0.00399  -0.1470  0.7663  1.0000  -0.9589   0.0000   0.4233
   2.500   0.8866   0.00911   0.00404  -0.1465  0.7468  1.0000  -1.0271   0.0000   0.4115
   3.000   0.9402   0.00923   0.00413  -0.1459  0.7258  1.0000  -1.1043   0.0000   0.4010
   3.500   0.9929   0.00938   0.00423  -0.1452  0.7023  1.0000  -1.1966   0.0000   0.3914
   4.000   1.0442   0.00959   0.00440  -0.1441  0.6749  1.0000  -1.2999   0.0000   0.3827
   4.500   1.0929   0.00988   0.00464  -0.1426  0.6418  1.0000  -1.4184   0.0000   0.3746
   5.000   1.1398   0.01030   0.00497  -0.1408  0.6039  1.0000  -1.5595   0.0000   0.3670
   5.500   1.1838   0.01086   0.00541  -0.1384  0.5606  1.0000  -1.7357   0.0000   0.3598
   6.000   1.2246   0.01156   0.00599  -0.1356  0.5108  1.0000  -1.9997   0.0000   0.3529
   6.500   1.2613   0.01247   0.00670  -0.1321  0.4571  1.0000  -2.3939   0.0000   0.3463
   7.000   1.2948   0.01351   0.00756  -0.1281  0.4003  1.0000  -2.7958   0.0000   0.3399
   7.500   1.3222   0.01474   0.00858  -0.1232  0.3416  1.0000  -3.1888   0.0000   0.3334
   8.000   1.3474   0.01616   0.00979  -0.1182  0.2844  1.0000  -3.5869   0.0000   0.3273


