XFLR5 v6.06

 Calculated polar for: fab_f_d

 1 1 Reynolds number fixed          Mach number fixed         

 xtrf =   1.000 (top)        1.000 (bottom)
 Mach =   0.000     Re =     0.350 e 6     Ncrit =   9.000

  alpha     CL        CD       CDp       Cm    Top Xtr Bot Xtr   Cpmin    Chinge    XCp    
 ------- -------- --------- --------- -------- ------- ------- -------- --------- ---------
  -8.000  -0.1362   0.01965   0.01365  -0.1710  0.8754  0.0381  -4.3466   0.0000  -1.0533
  -7.500  -0.0833   0.01829   0.01203  -0.1715  0.8694  0.0417  -3.9119   0.0000  -1.8813
  -7.000  -0.0334   0.01711   0.01065  -0.1711  0.8631  0.0454  -3.5056   0.0000  -5.0427
  -6.500   0.0197   0.01607   0.00949  -0.1712  0.8567  0.0499  -3.0895   0.0000   9.1768
  -6.000   0.0740   0.01521   0.00853  -0.1713  0.8512  0.0552  -2.6847   0.0000   2.6294
  -5.500   0.1257   0.01446   0.00768  -0.1709  0.8444  0.0622  -2.3087   0.0000   1.6437
  -5.000   0.1830   0.01379   0.00696  -0.1716  0.8396  0.0716  -2.0241   0.0000   1.2085
  -4.500   0.2345   0.01331   0.00650  -0.1711  0.8324  0.0835  -1.7713   0.0000   0.9940
  -4.000   0.2916   0.01275   0.00597  -0.1716  0.8262  0.0993  -1.5252   0.0000   0.8487
  -3.500   0.3458   0.01241   0.00568  -0.1716  0.8197  0.1217  -1.2927   0.0000   0.7537
  -3.000   0.4019   0.01203   0.00540  -0.1719  0.8133  0.1569  -1.0808   0.0000   0.6831
  -2.500   0.4589   0.01173   0.00521  -0.1724  0.8068  0.2057  -0.8859   0.0000   0.6294
  -2.000   0.5141   0.01140   0.00507  -0.1725  0.7990  0.2704  -0.7575   0.0000   0.5881
  -1.500   0.5719   0.01106   0.00499  -0.1732  0.7927  0.3738  -0.7954   0.0000   0.5543
  -1.000   0.6261   0.01056   0.00500  -0.1732  0.7841  0.5399  -0.8331   0.0000   0.5271
  -0.500   0.6788   0.01029   0.00519  -0.1722  0.7763  0.7116  -0.8743   0.0000   0.5034
   0.000   0.7318   0.01026   0.00521  -0.1712  0.7679  0.7820  -0.9172   0.0000   0.4827
   0.500   0.7814   0.01026   0.00526  -0.1694  0.7580  0.8298  -0.9629   0.0000   0.4649
   1.000   0.8351   0.01017   0.00513  -0.1684  0.7503  0.8648  -1.0151   0.0000   0.4491
   1.500   0.8795   0.01004   0.00507  -0.1657  0.7385  0.8987  -1.0616   0.0000   0.4351
   2.000   0.9212   0.00982   0.00491  -0.1622  0.7267  0.9407  -1.1155   0.0000   0.4222
   2.500   0.9837   0.00969   0.00477  -0.1637  0.7145  1.0000  -1.1842   0.0000   0.4119
   3.000   1.0416   0.00971   0.00474  -0.1644  0.6999  1.0000  -1.2505   0.0000   0.4026
   3.500   1.0971   0.00979   0.00477  -0.1645  0.6834  1.0000  -1.3239   0.0000   0.3941
   4.000   1.1511   0.00991   0.00485  -0.1643  0.6651  1.0000  -1.4008   0.0000   0.3862
   4.500   1.2025   0.01012   0.00502  -0.1636  0.6436  1.0000  -1.4767   0.0000   0.3788
   5.000   1.2508   0.01043   0.00524  -0.1623  0.6164  1.0000  -1.5672   0.0000   0.3718
   5.500   1.2965   0.01085   0.00560  -0.1605  0.5873  1.0000  -1.6606   0.0000   0.3651
   6.000   1.3382   0.01143   0.00607  -0.1580  0.5536  1.0000  -1.7619   0.0000   0.3587
   6.500   1.3750   0.01217   0.00668  -0.1546  0.5172  1.0000  -1.8683   0.0000   0.3523
   7.000   1.4069   0.01303   0.00742  -0.1504  0.4835  1.0000  -1.9797   0.0000   0.3461
   7.500   1.4348   0.01399   0.00830  -0.1457  0.4487  1.0000  -2.1020   0.0000   0.3399
   8.000   1.4602   0.01515   0.00938  -0.1408  0.4152  1.0000  -2.2875   0.0000   0.3340


