XFLR5 v6.06

 Calculated polar for: fab_d_f

 1 1 Reynolds number fixed          Mach number fixed         

 xtrf =   1.000 (top)        1.000 (bottom)
 Mach =   0.000     Re =     0.300 e 6     Ncrit =   9.000

  alpha     CL        CD       CDp       Cm    Top Xtr Bot Xtr   Cpmin    Chinge    XCp    
 ------- -------- --------- --------- -------- ------- ------- -------- --------- ---------
  -8.000  -0.2196   0.02152   0.01571  -0.1557  0.9255  0.0294  -4.9804   0.0000  -0.4851
  -7.500  -0.1695   0.02017   0.01419  -0.1560  0.9167  0.0340  -4.4849   0.0000  -0.7011
  -7.000  -0.1047   0.01840   0.01210  -0.1589  0.9119  0.0400  -3.9580   0.0000  -1.3122
  -6.500  -0.0533   0.01721   0.01066  -0.1587  0.9032  0.0462  -3.4975   0.0000  -2.8084
  -6.000   0.0101   0.01594   0.00917  -0.1606  0.8977  0.0537  -3.0142   0.0000  16.4882
  -5.500   0.0608   0.01504   0.00826  -0.1601  0.8889  0.0619  -2.6209   0.0000   2.9436
  -5.000   0.1223   0.01406   0.00725  -0.1616  0.8832  0.0742  -2.2017   0.0000   1.5978
  -4.500   0.1734   0.01353   0.00672  -0.1610  0.8744  0.0899  -1.8341   0.0000   1.1953
  -4.000   0.2358   0.01283   0.00601  -0.1626  0.8683  0.1132  -1.5127   0.0000   0.9502
  -3.500   0.2873   0.01239   0.00569  -0.1620  0.8586  0.1446  -1.2770   0.0000   0.8216
  -2.500   0.4009   0.01157   0.00517  -0.1630  0.8430  0.2638  -0.8386   0.0000   0.6603
  -2.000   0.4571   0.01118   0.00505  -0.1633  0.8342  0.3604  -0.6731   0.0000   0.6098
  -1.500   0.5150   0.01072   0.00496  -0.1639  0.8263  0.4992  -0.7094   0.0000   0.5697
  -1.000   0.5661   0.01042   0.00514  -0.1628  0.8163  0.6575  -0.7450   0.0000   0.5382
  -0.500   0.6195   0.01031   0.00519  -0.1617  0.8071  0.7586  -0.7852   0.0000   0.5107
   0.000   0.6696   0.01029   0.00523  -0.1599  0.7972  0.8221  -0.8247   0.0000   0.4878
   0.500   0.7157   0.01023   0.00521  -0.1572  0.7852  0.8702  -0.8688   0.0000   0.4680
   1.000   0.7577   0.01009   0.00511  -0.1536  0.7740  0.9193  -0.9118   0.0000   0.4504
   1.500   0.8189   0.00984   0.00484  -0.1544  0.7625  1.0000  -0.9721   0.0000   0.4356
   2.000   0.8792   0.00984   0.00474  -0.1555  0.7491  1.0000  -1.0361   0.0000   0.4233
   2.500   0.9370   0.00989   0.00472  -0.1560  0.7350  1.0000  -1.0995   0.0000   0.4124
   3.000   0.9905   0.00995   0.00476  -0.1556  0.7171  1.0000  -1.1714   0.0000   0.4024
   3.500   1.0440   0.01003   0.00483  -0.1551  0.6983  1.0000  -1.2441   0.0000   0.3933
   4.000   1.0977   0.01016   0.00490  -0.1546  0.6781  1.0000  -1.3311   0.0000   0.3849
   4.500   1.1471   0.01036   0.00507  -0.1533  0.6509  1.0000  -1.4252   0.0000   0.3771
   5.000   1.1958   0.01067   0.00534  -0.1519  0.6224  1.0000  -1.5305   0.0000   0.3698
   5.500   1.2409   0.01111   0.00570  -0.1498  0.5865  1.0000  -1.6443   0.0000   0.3629
   6.000   1.2832   0.01171   0.00619  -0.1473  0.5479  1.0000  -1.7799   0.0000   0.3563
   6.500   1.3219   0.01246   0.00682  -0.1442  0.5067  1.0000  -1.9425   0.0000   0.3499
   7.000   1.3566   0.01335   0.00759  -0.1405  0.4641  1.0000  -2.2037   0.0000   0.3436
   7.500   1.3848   0.01438   0.00848  -0.1357  0.4216  1.0000  -2.5397   0.0000   0.3373
   8.000   1.4093   0.01560   0.00957  -0.1304  0.3795  1.0000  -2.8839   0.0000   0.3311


