XFLR5 v6.06

 Calculated polar for: fab_d_f

 1 1 Reynolds number fixed          Mach number fixed         

 xtrf =   1.000 (top)        1.000 (bottom)
 Mach =   0.000     Re =     0.500 e 6     Ncrit =   9.000

  alpha     CL        CD       CDp       Cm    Top Xtr Bot Xtr   Cpmin    Chinge    XCp    
 ------- -------- --------- --------- -------- ------- ------- -------- --------- ---------
  -8.000  -0.1838   0.01489   0.00929  -0.1625  0.8973  0.0247  -5.1106   0.0000  -0.6648
  -7.500  -0.1326   0.01401   0.00820  -0.1623  0.8882  0.0289  -4.5732   0.0000  -1.0136
  -7.000  -0.0776   0.01320   0.00730  -0.1629  0.8807  0.0334  -4.0201   0.0000  -1.9104
  -6.500  -0.0244   0.01253   0.00649  -0.1628  0.8723  0.0389  -3.5031   0.0000  -6.5894
  -6.000   0.0305   0.01191   0.00579  -0.1630  0.8649  0.0451  -3.0206   0.0000   5.7292
  -5.500   0.0851   0.01129   0.00511  -0.1631  0.8573  0.0528  -2.5920   0.0000   2.2080
  -5.000   0.1405   0.01075   0.00453  -0.1633  0.8506  0.0635  -2.1803   0.0000   1.4354
  -4.500   0.1958   0.01030   0.00406  -0.1634  0.8426  0.0783  -1.7868   0.0000   1.0993
  -4.000   0.2512   0.00993   0.00370  -0.1636  0.8349  0.0977  -1.4965   0.0000   0.9111
  -3.500   0.3074   0.00954   0.00338  -0.1639  0.8276  0.1272  -1.2469   0.0000   0.7901
  -3.000   0.3629   0.00924   0.00318  -0.1641  0.8200  0.1707  -1.0197   0.0000   0.7069
  -2.500   0.4196   0.00892   0.00299  -0.1644  0.8119  0.2268  -0.8074   0.0000   0.6451
  -2.000   0.4747   0.00866   0.00291  -0.1645  0.8038  0.2998  -0.6864   0.0000   0.5987
  -1.500   0.5322   0.00836   0.00282  -0.1651  0.7957  0.3963  -0.7226   0.0000   0.5613
  -1.000   0.5861   0.00800   0.00283  -0.1649  0.7859  0.5268  -0.7596   0.0000   0.5316
  -0.500   0.6407   0.00774   0.00292  -0.1646  0.7770  0.6662  -0.8003   0.0000   0.5065
   0.000   0.6947   0.00766   0.00296  -0.1639  0.7666  0.7498  -0.8422   0.0000   0.4848
   0.500   0.7467   0.00766   0.00306  -0.1629  0.7559  0.8044  -0.8906   0.0000   0.4663
   1.000   0.7981   0.00765   0.00310  -0.1616  0.7435  0.8410  -0.9393   0.0000   0.4501
   1.500   0.8478   0.00763   0.00312  -0.1600  0.7309  0.8763  -0.9946   0.0000   0.4358
   2.000   0.8938   0.00757   0.00312  -0.1576  0.7165  0.9155  -1.0496   0.0000   0.4227
   2.500   0.9460   0.00746   0.00305  -0.1566  0.6993  1.0000  -1.1103   0.0000   0.4114
   3.000   1.0019   0.00762   0.00314  -0.1569  0.6811  1.0000  -1.1840   0.0000   0.4018
   3.500   1.0555   0.00783   0.00329  -0.1566  0.6595  1.0000  -1.2569   0.0000   0.3930
   4.000   1.1063   0.00811   0.00348  -0.1557  0.6322  1.0000  -1.3425   0.0000   0.3847
   4.500   1.1557   0.00847   0.00376  -0.1546  0.6028  1.0000  -1.4381   0.0000   0.3771
   5.000   1.2014   0.00896   0.00412  -0.1527  0.5644  1.0000  -1.5415   0.0000   0.3698
   5.500   1.2452   0.00956   0.00458  -0.1506  0.5257  1.0000  -1.6550   0.0000   0.3630
   6.000   1.2858   0.01028   0.00515  -0.1479  0.4854  1.0000  -1.7889   0.0000   0.3564
   6.500   1.3241   0.01107   0.00579  -0.1449  0.4428  1.0000  -1.9538   0.0000   0.3501
   7.000   1.3576   0.01195   0.00653  -0.1409  0.3998  1.0000  -2.2203   0.0000   0.3438
   7.500   1.3887   0.01296   0.00740  -0.1368  0.3585  1.0000  -2.5775   0.0000   0.3378
   8.000   1.4171   0.01414   0.00842  -0.1323  0.3158  1.0000  -2.9414   0.0000   0.3320


