XFLR5 v6.06

 Calculated polar for: fab_d_f

 1 1 Reynolds number fixed          Mach number fixed         

 xtrf =   1.000 (top)        1.000 (bottom)
 Mach =   0.000     Re =     0.600 e 6     Ncrit =   9.000

  alpha     CL        CD       CDp       Cm    Top Xtr Bot Xtr   Cpmin    Chinge    XCp    
 ------- -------- --------- --------- -------- ------- ------- -------- --------- ---------
  -8.000  -0.1838   0.01364   0.00812  -0.1625  0.8846  0.0233  -5.1815   0.0000  -0.6649
  -7.500  -0.1317   0.01276   0.00712  -0.1625  0.8761  0.0269  -4.6235   0.0000  -1.0236
  -7.000  -0.0763   0.01212   0.00634  -0.1630  0.8687  0.0312  -4.0579   0.0000  -1.9482
  -6.500  -0.0235   0.01151   0.00565  -0.1628  0.8605  0.0362  -3.5317   0.0000  -6.8589
  -5.500   0.0864   0.01046   0.00445  -0.1631  0.8460  0.0498  -2.6039   0.0000   2.1776
  -5.000   0.1432   0.00998   0.00393  -0.1636  0.8395  0.0600  -2.1808   0.0000   1.4143
  -4.500   0.1972   0.00956   0.00351  -0.1634  0.8314  0.0739  -1.7893   0.0000   1.0928
  -4.000   0.2546   0.00923   0.00317  -0.1639  0.8245  0.0925  -1.4937   0.0000   0.9034
  -3.500   0.3090   0.00889   0.00291  -0.1638  0.8169  0.1199  -1.2466   0.0000   0.7869
  -3.000   0.3665   0.00862   0.00269  -0.1643  0.8096  0.1609  -1.0144   0.0000   0.7031
  -2.500   0.4210   0.00832   0.00255  -0.1643  0.8013  0.2121  -0.8056   0.0000   0.6434
  -2.000   0.4781   0.00808   0.00245  -0.1647  0.7940  0.2781  -0.6891   0.0000   0.5966
  -1.000   0.5889   0.00749   0.00237  -0.1650  0.7763  0.4794  -0.7619   0.0000   0.5304
  -0.500   0.6442   0.00717   0.00239  -0.1650  0.7665  0.6221  -0.8030   0.0000   0.5056
   0.000   0.6975   0.00704   0.00250  -0.1643  0.7562  0.7194  -0.8444   0.0000   0.4844
   0.500   0.7509   0.00703   0.00258  -0.1636  0.7454  0.7809  -0.8938   0.0000   0.4660
   1.000   0.8039   0.00704   0.00262  -0.1628  0.7330  0.8193  -0.9435   0.0000   0.4501
   1.500   0.8557   0.00707   0.00268  -0.1617  0.7201  0.8531  -1.0006   0.0000   0.4360
   2.000   0.9047   0.00707   0.00274  -0.1601  0.7043  0.8869  -1.0576   0.0000   0.4233
   2.500   0.9503   0.00705   0.00278  -0.1576  0.6868  0.9260  -1.1142   0.0000   0.4117
   3.000   1.0043   0.00707   0.00281  -0.1573  0.6678  1.0000  -1.1867   0.0000   0.4018
   3.500   1.0574   0.00732   0.00297  -0.1569  0.6426  1.0000  -1.2593   0.0000   0.3930
   4.000   1.1086   0.00764   0.00319  -0.1561  0.6150  1.0000  -1.3453   0.0000   0.3848
   4.500   1.1571   0.00805   0.00348  -0.1548  0.5811  1.0000  -1.4404   0.0000   0.3772
   5.000   1.2026   0.00859   0.00387  -0.1530  0.5424  1.0000  -1.5438   0.0000   0.3699
   5.500   1.2461   0.00922   0.00435  -0.1508  0.5026  1.0000  -1.6573   0.0000   0.3631
   6.000   1.2881   0.00990   0.00489  -0.1485  0.4618  1.0000  -1.7936   0.0000   0.3566
   6.500   1.3267   0.01069   0.00553  -0.1455  0.4194  1.0000  -1.9607   0.0000   0.3504
   7.000   1.3604   0.01159   0.00626  -0.1416  0.3765  1.0000  -2.2354   0.0000   0.3441
   7.500   1.3927   0.01258   0.00709  -0.1377  0.3357  1.0000  -2.5997   0.0000   0.3382
   8.000   1.4220   0.01375   0.00809  -0.1334  0.2916  1.0000  -2.9691   0.0000   0.3324


