XFLR5 v6.06

 Calculated polar for: fab_h_b

 1 1 Reynolds number fixed          Mach number fixed         

 xtrf =   1.000 (top)        1.000 (bottom)
 Mach =   0.000     Re =     0.450 e 6     Ncrit =   9.000

  alpha     CL        CD       CDp       Cm    Top Xtr Bot Xtr   Cpmin    Chinge    XCp    
 ------- -------- --------- --------- -------- ------- ------- -------- --------- ---------
  -8.000  -0.0865   0.01769   0.01167  -0.1791  0.8277  0.0383  -4.0222   0.0000  -1.9058
  -7.500  -0.0328   0.01656   0.01027  -0.1795  0.8238  0.0409  -3.5998   0.0000  -5.4332
  -7.000   0.0175   0.01570   0.00928  -0.1790  0.8184  0.0438  -3.2205   0.0000  10.8599
  -6.500   0.0711   0.01490   0.00841  -0.1791  0.8138  0.0474  -2.9014   0.0000   2.8503
  -6.000   0.1276   0.01421   0.00760  -0.1797  0.8099  0.0518  -2.6028   0.0000   1.7000
  -5.500   0.1798   0.01355   0.00697  -0.1794  0.8052  0.0571  -2.3327   0.0000   1.2751
  -5.000   0.2343   0.01300   0.00642  -0.1795  0.7998  0.0645  -2.0697   0.0000   1.0350
  -4.500   0.2925   0.01250   0.00588  -0.1803  0.7954  0.0742  -1.8050   0.0000   0.8798
  -4.000   0.3462   0.01216   0.00558  -0.1801  0.7900  0.0856  -1.5669   0.0000   0.7803
  -3.500   0.4022   0.01180   0.00524  -0.1804  0.7844  0.1012  -1.3476   0.0000   0.7059
  -3.000   0.4618   0.01148   0.00495  -0.1813  0.7801  0.1262  -1.1314   0.0000   0.6481
  -2.500   0.5152   0.01121   0.00482  -0.1811  0.7736  0.1604  -0.9449   0.0000   0.6054
  -2.000   0.5732   0.01089   0.00459  -0.1817  0.7679  0.2045  -0.8458   0.0000   0.5695
  -1.500   0.6300   0.01064   0.00450  -0.1822  0.7619  0.2642  -0.8851   0.0000   0.5405
  -1.000   0.6860   0.01027   0.00442  -0.1825  0.7550  0.3649  -0.9244   0.0000   0.5164
  -0.500   0.7444   0.00970   0.00437  -0.1834  0.7489  0.5631  -0.9698   0.0000   0.4958
   0.000   0.7953   0.00944   0.00456  -0.1822  0.7403  0.7294  -1.0132   0.0000   0.4776
   0.500   0.8507   0.00946   0.00458  -0.1818  0.7337  0.7821  -1.0617   0.0000   0.4615
   1.000   0.9026   0.00944   0.00459  -0.1807  0.7244  0.8180  -1.1146   0.0000   0.4472
   1.500   0.9542   0.00941   0.00458  -0.1796  0.7151  0.8454  -1.1678   0.0000   0.4345
   2.000   1.0072   0.00933   0.00448  -0.1788  0.7060  0.8685  -1.2260   0.0000   0.4230
   2.500   1.0548   0.00926   0.00446  -0.1769  0.6933  0.8909  -1.2872   0.0000   0.4125
   3.000   1.0996   0.00918   0.00444  -0.1744  0.6797  0.9182  -1.3468   0.0000   0.4028
   3.500   1.1467   0.00904   0.00436  -0.1725  0.6648  0.9712  -1.4086   0.0000   0.3939
   4.000   1.2038   0.00920   0.00444  -0.1732  0.6474  1.0000  -1.4819   0.0000   0.3866
   4.500   1.2560   0.00947   0.00468  -0.1729  0.6266  1.0000  -1.5607   0.0000   0.3797
   5.000   1.3047   0.00984   0.00495  -0.1719  0.6019  1.0000  -1.6375   0.0000   0.3730
   5.500   1.3483   0.01034   0.00533  -0.1699  0.5726  1.0000  -1.7111   0.0000   0.3665
   6.000   1.3880   0.01097   0.00585  -0.1671  0.5427  1.0000  -1.7980   0.0000   0.3602
   6.500   1.4201   0.01172   0.00648  -0.1630  0.5129  1.0000  -1.8814   0.0000   0.3537
   7.000   1.4483   0.01265   0.00730  -0.1583  0.4816  1.0000  -1.9650   0.0000   0.3475
   7.500   1.4734   0.01374   0.00829  -0.1534  0.4516  1.0000  -2.0544   0.0000   0.3415
   8.000   1.4978   0.01501   0.00949  -0.1487  0.4239  1.0000  -2.1493   0.0000   0.3358


