XFLR5 v6.06

 Calculated polar for: fab_b_h

 1 1 Reynolds number fixed          Mach number fixed         

 xtrf =   1.000 (top)        1.000 (bottom)
 Mach =   0.000     Re =     0.150 e 6     Ncrit =   9.000

  alpha     CL        CD       CDp       Cm    Top Xtr Bot Xtr   Cpmin    Chinge    XCp    
 ------- -------- --------- --------- -------- ------- ------- -------- --------- ---------
  -8.000  -0.4149   0.10368   0.10025  -0.0293  0.9986  0.0682  -1.9932   0.0000   0.1712
  -7.500  -0.3958   0.09564   0.09223  -0.0378  0.9899  0.0734  -2.0018   0.0000   0.1464
  -7.000  -0.3751   0.08814   0.08474  -0.0445  0.9798  0.0780  -1.9836   0.0000   0.1234
  -6.000  -0.3122   0.03436   0.02829  -0.1018  0.9539  0.0428  -3.8071   0.0000  -0.0870
  -5.500  -0.2501   0.02997   0.02318  -0.1056  0.9463  0.0493  -3.5558   0.0000  -0.1848
  -5.000  -0.1763   0.02665   0.01914  -0.1104  0.9406  0.0604  -3.2113   0.0000  -0.3922
  -4.500  -0.1133   0.02466   0.01676  -0.1125  0.9322  0.0744  -2.8242   0.0000  -0.7649
  -4.000  -0.0383   0.02308   0.01510  -0.1166  0.9261  0.0965  -2.3543   0.0000  -2.8503
  -3.500   0.0219   0.02207   0.01415  -0.1181  0.9159  0.1281  -1.9802   0.0000   5.7232
  -2.500   0.1605   0.02039   0.01291  -0.1245  0.8996  0.2644  -1.1964   0.0000   1.0347
  -2.000   0.2232   0.01979   0.01278  -0.1265  0.8893  0.3875  -0.9525   0.0000   0.8219
  -1.500   0.3000   0.01885   0.01253  -0.1303  0.8835  0.5823  -0.7029   0.0000   0.6869
  -1.000   0.3479   0.01864   0.01276  -0.1278  0.8711  0.7481  -0.5639   0.0000   0.6187
  -0.500   0.3858   0.01843   0.01274  -0.1226  0.8586  0.8789  -0.5930   0.0000   0.5682
   0.000   0.4772   0.01746   0.01161  -0.1284  0.8543  1.0000  -0.6524   0.0000   0.5186
   0.500   0.5435   0.01744   0.01139  -0.1307  0.8418  1.0000  -0.7026   0.0000   0.4892
   1.000   0.6104   0.01730   0.01111  -0.1327  0.8295  1.0000  -0.7563   0.0000   0.4656
   2.500   0.8225   0.01599   0.00962  -0.1393  0.7928  1.0000  -0.9679   0.0000   0.4159
   3.000   0.8829   0.01577   0.00940  -0.1396  0.7752  1.0000  -1.0441   0.0000   0.4040
   3.500   0.9453   0.01540   0.00906  -0.1400  0.7563  1.0000  -1.1390   0.0000   0.3935
   4.000   1.0100   0.01501   0.00868  -0.1408  0.7368  1.0000  -1.2499   0.0000   0.3843
   4.500   1.0627   0.01491   0.00865  -0.1396  0.7101  1.0000  -1.3662   0.0000   0.3756
   5.000   1.1167   0.01483   0.00860  -0.1385  0.6807  1.0000  -1.5107   0.0000   0.3676
   5.500   1.1674   0.01488   0.00867  -0.1368  0.6451  1.0000  -1.6846   0.0000   0.3602
   6.000   1.2151   0.01515   0.00891  -0.1347  0.6035  1.0000  -1.9283   0.0000   0.3532
   6.500   1.2569   0.01569   0.00942  -0.1316  0.5545  1.0000  -2.3178   0.0000   0.3464
   7.000   1.2946   0.01651   0.01010  -0.1280  0.5004  1.0000  -2.7321   0.0000   0.3398
   7.500   1.3254   0.01762   0.01106  -0.1233  0.4421  1.0000  -3.1347   0.0000   0.3333
   8.000   1.3493   0.01900   0.01228  -0.1178  0.3823  1.0000  -3.5202   0.0000   0.3269


