XFLR5 v6.06

 Calculated polar for: fab_d_f

 1 1 Reynolds number fixed          Mach number fixed         

 xtrf =   1.000 (top)        1.000 (bottom)
 Mach =   0.000     Re =     0.250 e 6     Ncrit =   9.000

  alpha     CL        CD       CDp       Cm    Top Xtr Bot Xtr   Cpmin    Chinge    XCp    
 ------- -------- --------- --------- -------- ------- ------- -------- --------- ---------
  -8.000  -0.2664   0.02836   0.02327  -0.1447  0.9272  0.0301  -4.8569   0.0000  -0.3141
  -7.000  -0.1520   0.02233   0.01606  -0.1504  0.9146  0.0412  -4.0521   0.0000  -0.7707
  -6.500  -0.0809   0.02023   0.01358  -0.1544  0.9115  0.0486  -3.5334   0.0000  -1.7134
  -6.000  -0.0316   0.01887   0.01201  -0.1538  0.9023  0.0552  -3.1130   0.0000  -4.7481
  -5.500   0.0366   0.01733   0.01032  -0.1567  0.8982  0.0646  -2.6740   0.0000   4.6341
  -5.000   0.0876   0.01647   0.00943  -0.1562  0.8897  0.0756  -2.3003   0.0000   2.0696
  -4.500   0.1525   0.01546   0.00839  -0.1583  0.8845  0.0928  -1.8898   0.0000   1.3069
  -4.000   0.2057   0.01487   0.00783  -0.1581  0.8757  0.1143  -1.5719   0.0000   1.0313
  -3.500   0.2710   0.01409   0.00711  -0.1601  0.8697  0.1490  -1.3048   0.0000   0.8491
  -3.000   0.3231   0.01372   0.00689  -0.1598  0.8605  0.1980  -1.0904   0.0000   0.7505
  -2.500   0.3876   0.01308   0.00647  -0.1618  0.8547  0.2737  -0.8618   0.0000   0.6713
  -2.000   0.4399   0.01272   0.00642  -0.1614  0.8443  0.3751  -0.6865   0.0000   0.6196
  -1.500   0.4991   0.01218   0.00634  -0.1622  0.8368  0.5304  -0.6985   0.0000   0.5765
  -1.000   0.5509   0.01189   0.00650  -0.1609  0.8274  0.6922  -0.7345   0.0000   0.5428
  -0.500   0.5991   0.01187   0.00662  -0.1586  0.8165  0.7831  -0.7716   0.0000   0.5146
   0.000   0.6490   0.01177   0.00655  -0.1564  0.8077  0.8485  -0.8111   0.0000   0.4901
   0.500   0.6921   0.01159   0.00639  -0.1528  0.7968  0.9011  -0.8529   0.0000   0.4692
   1.000   0.7460   0.01126   0.00609  -0.1518  0.7843  0.9917  -0.9027   0.0000   0.4512
   1.500   0.8068   0.01132   0.00605  -0.1531  0.7726  1.0000  -0.9615   0.0000   0.4370
   2.000   0.8671   0.01127   0.00591  -0.1541  0.7590  1.0000  -1.0253   0.0000   0.4242
   2.500   0.9255   0.01127   0.00584  -0.1546  0.7452  1.0000  -1.0886   0.0000   0.4130
   3.000   0.9815   0.01126   0.00580  -0.1546  0.7291  1.0000  -1.1620   0.0000   0.4028
   3.500   1.0366   0.01124   0.00575  -0.1543  0.7109  1.0000  -1.2361   0.0000   0.3935
   4.000   1.0919   0.01129   0.00575  -0.1540  0.6924  1.0000  -1.3237   0.0000   0.3852
   4.500   1.1411   0.01142   0.00590  -0.1526  0.6670  1.0000  -1.4168   0.0000   0.3772
   5.000   1.1907   0.01163   0.00609  -0.1513  0.6394  1.0000  -1.5220   0.0000   0.3699
   5.500   1.2378   0.01198   0.00637  -0.1495  0.6068  1.0000  -1.6377   0.0000   0.3629
   6.000   1.2811   0.01249   0.00680  -0.1471  0.5692  1.0000  -1.7739   0.0000   0.3563
   6.500   1.3211   0.01319   0.00738  -0.1441  0.5288  1.0000  -1.9374   0.0000   0.3499
   7.000   1.3567   0.01406   0.00813  -0.1405  0.4866  1.0000  -2.1974   0.0000   0.3436
   7.500   1.3864   0.01506   0.00902  -0.1359  0.4433  1.0000  -2.5358   0.0000   0.3374
   8.000   1.4107   0.01624   0.01009  -0.1306  0.4003  1.0000  -2.8783   0.0000   0.3312


