XFLR5 v6.06

 Calculated polar for: fab_d_f

 1 1 Reynolds number fixed          Mach number fixed         

 xtrf =   1.000 (top)        1.000 (bottom)
 Mach =   0.000     Re =     0.200 e 6     Ncrit =   9.000

  alpha     CL        CD       CDp       Cm    Top Xtr Bot Xtr   Cpmin    Chinge    XCp    
 ------- -------- --------- --------- -------- ------- ------- -------- --------- ---------
  -7.500  -0.1979   0.06767   0.06435  -0.1108  0.9374  0.0728  -2.4064   0.0000  -0.3312
  -7.000  -0.2401   0.03035   0.02465  -0.1332  0.9156  0.0414  -4.1490   0.0000  -0.3244
  -6.500  -0.1683   0.02641   0.01990  -0.1389  0.9122  0.0491  -3.7471   0.0000  -0.6009
  -5.500  -0.0481   0.02228   0.01507  -0.1426  0.8995  0.0648  -2.9094   0.0000  -2.7916
  -5.000   0.0306   0.02045   0.01301  -0.1474  0.8973  0.0772  -2.4609   0.0000   5.1688
  -4.500   0.0763   0.01972   0.01220  -0.1460  0.8871  0.0904  -2.1242   0.0000   2.2009
  -4.000   0.1541   0.01835   0.01087  -0.1504  0.8839  0.1139  -1.6867   0.0000   1.2434
  -3.500   0.2059   0.01784   0.01043  -0.1501  0.8741  0.1412  -1.4398   0.0000   0.9901
  -3.000   0.2791   0.01684   0.00962  -0.1537  0.8699  0.1924  -1.1737   0.0000   0.8078
  -2.500   0.3315   0.01649   0.00949  -0.1536  0.8603  0.2594  -0.9646   0.0000   0.7181
  -2.000   0.4044   0.01552   0.00890  -0.1570  0.8552  0.3785  -0.7424   0.0000   0.6413
  -1.500   0.4559   0.01511   0.00905  -0.1564  0.8447  0.5409  -0.6706   0.0000   0.5949
  -1.000   0.5188   0.01449   0.00890  -0.1566  0.8395  0.7216  -0.7131   0.0000   0.5527
  -0.500   0.5604   0.01457   0.00911  -0.1528  0.8275  0.8122  -0.7460   0.0000   0.5227
   0.000   0.5973   0.01446   0.00906  -0.1477  0.8157  0.8848  -0.7779   0.0000   0.4966
   0.500   0.6557   0.01393   0.00851  -0.1470  0.8079  0.9733  -0.8273   0.0000   0.4727
   1.000   0.7246   0.01373   0.00815  -0.1498  0.7968  1.0000  -0.8853   0.0000   0.4545
   1.500   0.7842   0.01376   0.00808  -0.1507  0.7841  1.0000  -0.9422   0.0000   0.4394
   2.000   0.8442   0.01372   0.00796  -0.1515  0.7712  1.0000  -1.0054   0.0000   0.4261
   2.500   0.9046   0.01356   0.00773  -0.1521  0.7571  1.0000  -1.0701   0.0000   0.4142
   3.000   0.9631   0.01348   0.00762  -0.1525  0.7425  1.0000  -1.1438   0.0000   0.4037
   3.500   1.0208   0.01331   0.00742  -0.1525  0.7255  1.0000  -1.2198   0.0000   0.3941
   4.000   1.0787   0.01316   0.00725  -0.1525  0.7077  1.0000  -1.3081   0.0000   0.3855
   4.500   1.1294   0.01322   0.00735  -0.1513  0.6856  1.0000  -1.4011   0.0000   0.3775
   5.000   1.1815   0.01322   0.00734  -0.1502  0.6598  1.0000  -1.5075   0.0000   0.3700
   5.500   1.2308   0.01342   0.00752  -0.1488  0.6306  1.0000  -1.6250   0.0000   0.3631
   6.000   1.2757   0.01377   0.00784  -0.1465  0.5942  1.0000  -1.7614   0.0000   0.3563
   6.500   1.3183   0.01434   0.00832  -0.1439  0.5554  1.0000  -1.9261   0.0000   0.3500
   7.000   1.3564   0.01512   0.00899  -0.1406  0.5135  1.0000  -2.1860   0.0000   0.3438
   7.500   1.3891   0.01611   0.00987  -0.1365  0.4700  1.0000  -2.5310   0.0000   0.3376
   8.000   1.4143   0.01725   0.01091  -0.1312  0.4266  1.0000  -2.8769   0.0000   0.3314


