XFLR5 v6.06

 Calculated polar for: fab_b_h

 1 1 Reynolds number fixed          Mach number fixed         

 xtrf =   1.000 (top)        1.000 (bottom)
 Mach =   0.000     Re =     0.550 e 6     Ncrit =   9.000

  alpha     CL        CD       CDp       Cm    Top Xtr Bot Xtr   Cpmin    Chinge    XCp    
 ------- -------- --------- --------- -------- ------- ------- -------- --------- ---------
  -8.000  -0.2743   0.01621   0.01105  -0.1445  0.9423  0.0141  -5.7507   0.0000  -0.2950
  -7.500  -0.2058   0.01430   0.00891  -0.1483  0.9386  0.0162  -5.1699   0.0000  -0.4929
  -7.000  -0.1499   0.01304   0.00748  -0.1491  0.9291  0.0198  -4.6317   0.0000  -0.7722
  -6.500  -0.0881   0.01190   0.00623  -0.1510  0.9215  0.0253  -4.0714   0.0000  -1.5063
  -6.000  -0.0277   0.01105   0.00528  -0.1524  0.9127  0.0323  -3.5092   0.0000  -5.3685
  -5.500   0.0288   0.01042   0.00460  -0.1529  0.9027  0.0414  -2.9769   0.0000   5.6544
  -5.000   0.0875   0.00983   0.00396  -0.1537  0.8939  0.0556  -2.4652   0.0000   2.0374
  -4.500   0.1449   0.00930   0.00342  -0.1543  0.8840  0.0761  -2.0256   0.0000   1.3312
  -4.000   0.1999   0.00888   0.00304  -0.1543  0.8732  0.1027  -1.6283   0.0000   1.0321
  -3.500   0.2564   0.00851   0.00275  -0.1546  0.8637  0.1442  -1.2499   0.0000   0.8600
  -3.000   0.3142   0.00817   0.00250  -0.1552  0.8541  0.2005  -0.9964   0.0000   0.7487
  -2.500   0.3683   0.00785   0.00235  -0.1550  0.8428  0.2677  -0.7777   0.0000   0.6741
  -2.000   0.4239   0.00758   0.00225  -0.1552  0.8325  0.3496  -0.6075   0.0000   0.6181
  -1.500   0.4798   0.00730   0.00218  -0.1553  0.8215  0.4464  -0.6415   0.0000   0.5748
  -1.000   0.5358   0.00704   0.00217  -0.1554  0.8105  0.5614  -0.6787   0.0000   0.5404
  -0.500   0.5892   0.00685   0.00223  -0.1548  0.7975  0.6627  -0.7172   0.0000   0.5124
   0.000   0.6421   0.00677   0.00232  -0.1540  0.7844  0.7471  -0.7588   0.0000   0.4889
   0.500   0.6944   0.00675   0.00238  -0.1530  0.7705  0.8047  -0.8056   0.0000   0.4687
   1.000   0.7447   0.00674   0.00245  -0.1515  0.7550  0.8530  -0.8561   0.0000   0.4513
   1.500   0.7918   0.00673   0.00249  -0.1492  0.7389  0.9013  -0.9089   0.0000   0.4358
   2.000   0.8419   0.00663   0.00243  -0.1476  0.7195  1.0000  -0.9687   0.0000   0.4221
   2.500   0.8970   0.00679   0.00253  -0.1476  0.6991  1.0000  -1.0381   0.0000   0.4108
   3.000   0.9498   0.00702   0.00267  -0.1471  0.6734  1.0000  -1.1158   0.0000   0.4005
   3.500   1.0015   0.00729   0.00286  -0.1463  0.6459  1.0000  -1.2086   0.0000   0.3912
   4.000   1.0508   0.00766   0.00310  -0.1450  0.6096  1.0000  -1.3113   0.0000   0.3826
   4.500   1.0982   0.00812   0.00343  -0.1434  0.5694  1.0000  -1.4301   0.0000   0.3746
   5.000   1.1437   0.00868   0.00384  -0.1415  0.5250  1.0000  -1.5707   0.0000   0.3672
   5.500   1.1869   0.00937   0.00435  -0.1392  0.4756  1.0000  -1.7492   0.0000   0.3601
   6.000   1.2279   0.01018   0.00495  -0.1367  0.4215  1.0000  -2.0394   0.0000   0.3535
   6.500   1.2667   0.01112   0.00566  -0.1337  0.3664  1.0000  -2.4464   0.0000   0.3471
   7.000   1.3018   0.01219   0.00648  -0.1302  0.3072  1.0000  -2.8603   0.0000   0.3409
   7.500   1.3343   0.01337   0.00742  -0.1264  0.2513  1.0000  -3.2830   0.0000   0.3349
   8.000   1.3647   0.01470   0.00849  -0.1223  0.1979  1.0000  -3.7240   0.0000   0.3292


