XFLR5 v6.06

 Calculated polar for: fab_h_b

 1 1 Reynolds number fixed          Mach number fixed         

 xtrf =   1.000 (top)        1.000 (bottom)
 Mach =   0.000     Re =     0.150 e 6     Ncrit =   9.000

  alpha     CL        CD       CDp       Cm    Top Xtr Bot Xtr   Cpmin    Chinge    XCp    
 ------- -------- --------- --------- -------- ------- ------- -------- --------- ---------
  -7.500  -0.0345   0.08187   0.07778  -0.1152  0.9028  0.1064  -1.5213   0.0000  -3.2635
  -6.500  -0.0605   0.07419   0.07019  -0.1140  0.8815  0.1164  -1.5779   0.0000  -1.7165
  -6.000  -0.0893   0.06911   0.06512  -0.1156  0.8676  0.1219  -1.6894   0.0000  -1.0945
  -5.500  -0.0934   0.06369   0.05958  -0.1172  0.8540  0.1308  -1.7130   0.0000  -1.0486
  -5.000  -0.0870   0.05866   0.05435  -0.1182  0.8417  0.1404  -1.6991   0.0000  -1.1533
  -4.500   0.0335   0.03310   0.02544  -0.1453  0.8404  0.0880  -2.1956   0.0000   4.7083
  -4.000   0.0768   0.03235   0.02430  -0.1443  0.8307  0.0963  -2.0235   0.0000   2.1787
  -3.500   0.1475   0.03115   0.02303  -0.1473  0.8259  0.1100  -1.7762   0.0000   1.2711
  -3.000   0.1915   0.03105   0.02291  -0.1461  0.8150  0.1242  -1.5862   0.0000   1.0282
  -2.500   0.2724   0.02982   0.02168  -0.1502  0.8105  0.1512  -1.3409   0.0000   0.8105
  -1.500   0.3695   0.02994   0.02210  -0.1492  0.7898  0.2266  -0.9979   0.0000   0.6580
  -1.000   0.4357   0.02935   0.02187  -0.1514  0.7825  0.3114  -0.8083   0.0000   0.5997
  -0.500   0.5215   0.02723   0.02107  -0.1555  0.7801  0.6349  -0.8051   0.0000   0.5489
   0.000   0.5448   0.02767   0.02182  -0.1481  0.7663  0.8194  -0.8288   0.0000   0.5215
   1.000   0.6135   0.02846   0.02254  -0.1400  0.7401  1.0000  -0.8920   0.0000   0.4760
   1.500   0.7049   0.02713   0.02097  -0.1449  0.7370  1.0000  -0.9708   0.0000   0.4524
   2.000   0.8028   0.02552   0.01917  -0.1508  0.7354  1.0000  -1.0556   0.0000   0.4339
   2.500   0.8153   0.02753   0.02113  -0.1453  0.7129  1.0000  -1.0781   0.0000   0.4234
   3.500   0.9682   0.02509   0.01855  -0.1502  0.6983  1.0000  -1.2431   0.0000   0.3989
   4.000   1.0580   0.02336   0.01677  -0.1548  0.6936  1.0000  -1.3384   0.0000   0.3893
   5.000   1.1829   0.02178   0.01520  -0.1558  0.6676  1.0000  -1.5075   0.0000   0.3732
   5.500   1.2482   0.02091   0.01434  -0.1567  0.6531  1.0000  -1.5992   0.0000   0.3663
   6.000   1.3124   0.02019   0.01363  -0.1575  0.6363  1.0000  -1.7007   0.0000   0.3600
   6.500   1.3738   0.01971   0.01314  -0.1580  0.6162  1.0000  -1.8121   0.0000   0.3542
   7.000   1.4210   0.01970   0.01310  -0.1562  0.5896  1.0000  -1.9133   0.0000   0.3483
   7.500   1.4626   0.02009   0.01344  -0.1536  0.5614  1.0000  -2.0207   0.0000   0.3426
   8.000   1.5004   0.02077   0.01406  -0.1505  0.5319  1.0000  -2.1309   0.0000   0.3370


