XFLR5 v6.06

 Calculated polar for: fab_f_d

 1 1 Reynolds number fixed          Mach number fixed         

 xtrf =   1.000 (top)        1.000 (bottom)
 Mach =   0.000     Re =     0.500 e 6     Ncrit =   9.000

  alpha     CL        CD       CDp       Cm    Top Xtr Bot Xtr   Cpmin    Chinge    XCp    
 ------- -------- --------- --------- -------- ------- ------- -------- --------- ---------
  -8.000  -0.1327   0.01573   0.00985  -0.1714  0.8517  0.0334  -4.4801   0.0000  -1.0898
  -7.500  -0.0818   0.01485   0.00885  -0.1712  0.8454  0.0366  -4.0205   0.0000  -1.9154
  -7.000  -0.0274   0.01399   0.00784  -0.1715  0.8402  0.0400  -3.5668   0.0000  -6.1970
  -6.500   0.0250   0.01328   0.00704  -0.1713  0.8341  0.0441  -3.1362   0.0000   7.3098
  -6.000   0.0795   0.01260   0.00626  -0.1714  0.8285  0.0489  -2.7175   0.0000   2.4646
  -5.500   0.1357   0.01203   0.00566  -0.1719  0.8237  0.0553  -2.3143   0.0000   1.5476
  -5.000   0.1889   0.01149   0.00513  -0.1717  0.8176  0.0638  -2.0397   0.0000   1.1788
  -4.500   0.2457   0.01103   0.00463  -0.1722  0.8118  0.0753  -1.7679   0.0000   0.9641
  -4.000   0.3010   0.01072   0.00431  -0.1723  0.8059  0.0898  -1.5200   0.0000   0.8320
  -3.500   0.3569   0.01034   0.00399  -0.1725  0.7997  0.1102  -1.2792   0.0000   0.7404
  -3.000   0.4150   0.01006   0.00377  -0.1732  0.7942  0.1435  -1.0624   0.0000   0.6723
  -2.500   0.4692   0.00977   0.00362  -0.1731  0.7868  0.1867  -0.8717   0.0000   0.6224
  -2.000   0.5276   0.00949   0.00345  -0.1738  0.7808  0.2431  -0.7680   0.0000   0.5816
  -1.000   0.6399   0.00882   0.00330  -0.1744  0.7663  0.4415  -0.8439   0.0000   0.5229
  -0.500   0.6933   0.00838   0.00340  -0.1742  0.7577  0.6255  -0.8854   0.0000   0.5007
   0.000   0.7487   0.00827   0.00347  -0.1738  0.7498  0.7358  -0.9298   0.0000   0.4808
   0.500   0.8007   0.00826   0.00356  -0.1728  0.7403  0.7873  -0.9776   0.0000   0.4638
   1.000   0.8531   0.00826   0.00359  -0.1718  0.7304  0.8230  -1.0289   0.0000   0.4487
   1.500   0.9060   0.00825   0.00357  -0.1709  0.7201  0.8526  -1.0822   0.0000   0.4353
   2.000   0.9557   0.00821   0.00358  -0.1695  0.7076  0.8777  -1.1420   0.0000   0.4233
   2.500   1.0031   0.00817   0.00358  -0.1675  0.6934  0.9073  -1.2007   0.0000   0.4123
   3.000   1.0467   0.00807   0.00354  -0.1647  0.6780  0.9532  -1.2574   0.0000   0.4020
   3.500   1.1056   0.00818   0.00363  -0.1656  0.6596  1.0000  -1.3338   0.0000   0.3938
   4.000   1.1591   0.00841   0.00381  -0.1654  0.6384  1.0000  -1.4102   0.0000   0.3861
   4.500   1.2091   0.00874   0.00404  -0.1645  0.6110  1.0000  -1.4850   0.0000   0.3788
   5.000   1.2565   0.00916   0.00436  -0.1631  0.5816  1.0000  -1.5754   0.0000   0.3718
   5.500   1.3004   0.00971   0.00480  -0.1611  0.5487  1.0000  -1.6676   0.0000   0.3652
   6.000   1.3395   0.01042   0.00534  -0.1581  0.5121  1.0000  -1.7661   0.0000   0.3587
   6.500   1.3760   0.01115   0.00596  -0.1548  0.4782  1.0000  -1.8728   0.0000   0.3524
   7.000   1.4073   0.01201   0.00671  -0.1505  0.4436  1.0000  -1.9837   0.0000   0.3461
   7.500   1.4362   0.01300   0.00759  -0.1460  0.4101  1.0000  -2.1079   0.0000   0.3401
   8.000   1.4629   0.01417   0.00865  -0.1415  0.3778  1.0000  -2.3019   0.0000   0.3343


