XFLR5 v6.06

 Calculated polar for: fab_b_h

 1 1 Reynolds number fixed          Mach number fixed         

 xtrf =   1.000 (top)        1.000 (bottom)
 Mach =   0.000     Re =     0.250 e 6     Ncrit =   9.000

  alpha     CL        CD       CDp       Cm    Top Xtr Bot Xtr   Cpmin    Chinge    XCp    
 ------- -------- --------- --------- -------- ------- ------- -------- --------- ---------
  -8.000  -0.2080   0.07667   0.07383  -0.0733  0.9676  0.0523  -1.8045   0.0000  -0.1163
  -7.000  -0.2651   0.04925   0.04605  -0.1095  0.9431  0.0436  -2.9481   0.0000  -0.1760
  -6.500  -0.2313   0.02244   0.01599  -0.1247  0.9319  0.0298  -4.3166   0.0000  -0.3057
  -6.000  -0.1614   0.02011   0.01338  -0.1285  0.9276  0.0367  -3.8471   0.0000  -0.5670
  -5.500  -0.0856   0.01835   0.01143  -0.1330  0.9252  0.0474  -3.3128   0.0000  -1.3409
  -5.000  -0.0318   0.01725   0.01023  -0.1331  0.9157  0.0593  -2.8623   0.0000  -4.0248
  -4.500   0.0447   0.01581   0.00882  -0.1376  0.9129  0.0797  -2.3341   0.0000   3.3809
  -3.500   0.1800   0.01391   0.00715  -0.1431  0.9003  0.1562  -1.4837   0.0000   1.0556
  -3.000   0.2571   0.01294   0.00638  -0.1477  0.8970  0.2348  -1.1098   0.0000   0.8306
  -2.500   0.3120   0.01244   0.00615  -0.1478  0.8862  0.3247  -0.8822   0.0000   0.7279
  -2.000   0.3742   0.01184   0.00590  -0.1493  0.8776  0.4468  -0.6642   0.0000   0.6515
  -1.500   0.4392   0.01119   0.00565  -0.1509  0.8699  0.5926  -0.6152   0.0000   0.5950
  -1.000   0.4913   0.01096   0.00572  -0.1496  0.8587  0.7123  -0.6503   0.0000   0.5551
  -0.500   0.5432   0.01077   0.00567  -0.1479  0.8472  0.8023  -0.6879   0.0000   0.5221
   0.000   0.5913   0.01057   0.00554  -0.1452  0.8360  0.8709  -0.7258   0.0000   0.4948
   0.500   0.6390   0.01021   0.00520  -0.1423  0.8241  0.9490  -0.7699   0.0000   0.4713
   1.000   0.7088   0.01008   0.00495  -0.1452  0.8107  1.0000  -0.8289   0.0000   0.4529
   1.500   0.7684   0.01011   0.00488  -0.1461  0.7960  1.0000  -0.8890   0.0000   0.4375
   2.000   0.8250   0.01016   0.00485  -0.1461  0.7792  1.0000  -0.9512   0.0000   0.4240
   2.500   0.8792   0.01023   0.00489  -0.1457  0.7607  1.0000  -1.0197   0.0000   0.4121
   3.000   0.9341   0.01028   0.00489  -0.1453  0.7401  1.0000  -1.0974   0.0000   0.4014
   3.500   0.9882   0.01038   0.00496  -0.1448  0.7187  1.0000  -1.1902   0.0000   0.3918
   4.000   1.0405   0.01051   0.00505  -0.1438  0.6924  1.0000  -1.2938   0.0000   0.3829
   4.500   1.0901   0.01074   0.00527  -0.1424  0.6620  1.0000  -1.4124   0.0000   0.3747
   5.000   1.1371   0.01107   0.00556  -0.1404  0.6249  1.0000  -1.5527   0.0000   0.3670
   5.500   1.1822   0.01155   0.00596  -0.1382  0.5834  1.0000  -1.7288   0.0000   0.3598
   6.000   1.2238   0.01220   0.00649  -0.1354  0.5358  1.0000  -1.9882   0.0000   0.3529
   6.500   1.2615   0.01305   0.00718  -0.1320  0.4833  1.0000  -2.3829   0.0000   0.3462
   7.000   1.2946   0.01410   0.00804  -0.1279  0.4273  1.0000  -2.7817   0.0000   0.3397
   7.500   1.3223   0.01531   0.00906  -0.1230  0.3690  1.0000  -3.1745   0.0000   0.3333
   8.000   1.3452   0.01675   0.01028  -0.1176  0.3109  1.0000  -3.5596   0.0000   0.3269


