XFLR5 v6.06

 Calculated polar for: fab_f_d

 1 1 Reynolds number fixed          Mach number fixed         

 xtrf =   1.000 (top)        1.000 (bottom)
 Mach =   0.000     Re =     0.100 e 6     Ncrit =   9.000

  alpha     CL        CD       CDp       Cm    Top Xtr Bot Xtr   Cpmin    Chinge    XCp    
 ------- -------- --------- --------- -------- ------- ------- -------- --------- ---------
  -8.000  -0.3307   0.11387   0.10964  -0.0461  0.9745  0.1120  -1.8279   0.0000   0.0960
  -7.500  -0.3207   0.10795   0.10374  -0.0490  0.9669  0.1202  -1.8039   0.0000   0.0832
  -7.000  -0.3154   0.10282   0.09864  -0.0475  0.9590  0.1262  -1.7537   0.0000   0.0859
  -6.500  -0.3230   0.09794   0.09383  -0.0489  0.9503  0.1335  -1.7894   0.0000   0.0863
  -6.000  -0.3264   0.09181   0.08774  -0.0533  0.9401  0.1421  -1.8336   0.0000   0.0756
  -5.500  -0.3210   0.08494   0.08086  -0.0589  0.9292  0.1522  -1.8558   0.0000   0.0560
  -5.000  -0.2960   0.07622   0.07195  -0.0722  0.9192  0.1725  -1.8879   0.0000  -0.0043
  -4.500  -0.2181   0.05925   0.05415  -0.0954  0.9117  0.1489  -2.0125   0.0000  -0.2013
  -4.000  -0.1016   0.03980   0.03209  -0.1172  0.9061  0.1091  -2.1885   0.0000  -0.9359
  -3.500  -0.0255   0.03726   0.02878  -0.1223  0.8980  0.1224  -1.9213   0.0000  -4.6645
  -3.000   0.0321   0.03621   0.02737  -0.1237  0.8867  0.1399  -1.7250   0.0000   4.1804
  -2.500   0.0935   0.03554   0.02669  -0.1256  0.8752  0.1643  -1.5114   0.0000   1.6173
  -2.000   0.1609   0.03508   0.02626  -0.1283  0.8647  0.2023  -1.2913   0.0000   1.0595
  -1.500   0.2304   0.03465   0.02605  -0.1313  0.8543  0.2654  -1.0839   0.0000   0.8267
  -1.000   0.2830   0.03456   0.02642  -0.1318  0.8413  0.3644  -0.9144   0.0000   0.7198
  -0.500   0.3338   0.03399   0.02722  -0.1307  0.8280  0.6575  -0.7541   0.0000   0.6438
   0.000   0.3543   0.03376   0.02744  -0.1216  0.8129  0.9506  -0.6482   0.0000   0.5940
   0.500   0.4181   0.03458   0.02781  -0.1241  0.7983  1.0000  -0.6905   0.0000   0.5464
   1.000   0.4787   0.03549   0.02841  -0.1259  0.7839  1.0000  -0.7383   0.0000   0.5115
   1.500   0.5398   0.03622   0.02889  -0.1274  0.7691  1.0000  -0.7887   0.0000   0.4835
   2.000   0.6026   0.03668   0.02917  -0.1288  0.7540  1.0000  -0.8416   0.0000   0.4603
   2.500   0.6621   0.03722   0.02958  -0.1296  0.7392  1.0000  -0.8994   0.0000   0.4417
   3.000   0.7209   0.03766   0.02994  -0.1303  0.7244  1.0000  -0.9604   0.0000   0.4258
   3.500   0.7839   0.03759   0.02983  -0.1310  0.7096  1.0000  -1.0266   0.0000   0.4115
   4.500   0.9098   0.03684   0.02910  -0.1317  0.6805  1.0000  -1.1768   0.0000   0.3878
   5.000   1.0081   0.03377   0.02609  -0.1351  0.6763  1.0000  -1.2948   0.0000   0.3764
   5.500   1.0483   0.03400   0.02642  -0.1324  0.6542  1.0000  -1.3641   0.0000   0.3680
   6.000   1.1591   0.03002   0.02257  -0.1374  0.6491  1.0000  -1.5240   0.0000   0.3596
   6.500   1.2464   0.02777   0.02046  -0.1405  0.6340  1.0000  -1.6725   0.0000   0.3530
   7.000   1.3031   0.02690   0.01972  -0.1393  0.6091  1.0000  -1.8000   0.0000   0.3464
   7.500   1.3750   0.02577   0.01867  -0.1405  0.5829  1.0000  -1.9691   0.0000   0.3409
   8.000   1.4332   0.02539   0.01831  -0.1399  0.5502  1.0000  -2.1569   0.0000   0.3355


