XFLR5 v6.06

 Calculated polar for: fab_d_f

 1 1 Reynolds number fixed          Mach number fixed         

 xtrf =   1.000 (top)        1.000 (bottom)
 Mach =   0.000     Re =     0.400 e 6     Ncrit =   9.000

  alpha     CL        CD       CDp       Cm    Top Xtr Bot Xtr   Cpmin    Chinge    XCp    
 ------- -------- --------- --------- -------- ------- ------- -------- --------- ---------
  -8.000  -0.1909   0.01695   0.01119  -0.1612  0.9118  0.0268  -5.0480   0.0000  -0.6241
  -7.500  -0.1391   0.01597   0.01003  -0.1613  0.9028  0.0313  -4.5147   0.0000  -0.9467
  -7.000  -0.0810   0.01492   0.00881  -0.1626  0.8960  0.0365  -3.9695   0.0000  -1.8161
  -6.500  -0.0294   0.01413   0.00785  -0.1622  0.8871  0.0423  -3.4768   0.0000  -5.4190
  -6.000   0.0260   0.01332   0.00697  -0.1626  0.8796  0.0487  -3.0046   0.0000   6.6526
  -5.500   0.0803   0.01257   0.00616  -0.1627  0.8717  0.0568  -2.5865   0.0000   2.3211
  -5.000   0.1354   0.01193   0.00547  -0.1629  0.8646  0.0681  -2.1826   0.0000   1.4766
  -4.500   0.1911   0.01141   0.00494  -0.1632  0.8570  0.0837  -1.7920   0.0000   1.1189
  -4.000   0.2460   0.01097   0.00452  -0.1632  0.8488  0.1042  -1.5008   0.0000   0.9236
  -3.500   0.3031   0.01053   0.00415  -0.1637  0.8413  0.1358  -1.2513   0.0000   0.7973
  -3.000   0.3577   0.01021   0.00395  -0.1637  0.8335  0.1827  -1.0277   0.0000   0.7128
  -2.500   0.4157   0.00985   0.00371  -0.1644  0.8257  0.2451  -0.8134   0.0000   0.6489
  -2.000   0.4696   0.00955   0.00364  -0.1643  0.8167  0.3256  -0.6824   0.0000   0.6020
  -1.500   0.5281   0.00921   0.00356  -0.1650  0.8093  0.4410  -0.7190   0.0000   0.5638
  -1.000   0.5811   0.00881   0.00360  -0.1646  0.7990  0.5889  -0.7556   0.0000   0.5336
  -0.500   0.6339   0.00866   0.00374  -0.1637  0.7899  0.7114  -0.7953   0.0000   0.5079
   0.000   0.6883   0.00862   0.00375  -0.1629  0.7801  0.7824  -0.8375   0.0000   0.4857
   0.500   0.7382   0.00860   0.00381  -0.1613  0.7687  0.8309  -0.8844   0.0000   0.4668
   1.000   0.7872   0.00857   0.00384  -0.1595  0.7572  0.8698  -0.9316   0.0000   0.4503
   1.500   0.8319   0.00846   0.00377  -0.1566  0.7441  0.9118  -0.9831   0.0000   0.4353
   2.000   0.8856   0.00827   0.00362  -0.1559  0.7310  1.0000  -1.0429   0.0000   0.4224
   2.500   0.9427   0.00835   0.00364  -0.1563  0.7148  1.0000  -1.1064   0.0000   0.4117
   3.000   0.9979   0.00846   0.00370  -0.1564  0.6969  1.0000  -1.1796   0.0000   0.4019
   3.500   1.0523   0.00863   0.00380  -0.1562  0.6781  1.0000  -1.2531   0.0000   0.3931
   4.000   1.1031   0.00884   0.00397  -0.1552  0.6522  1.0000  -1.3382   0.0000   0.3848
   4.500   1.1530   0.00915   0.00422  -0.1541  0.6250  1.0000  -1.4338   0.0000   0.3771
   5.000   1.1998   0.00957   0.00453  -0.1524  0.5911  1.0000  -1.5379   0.0000   0.3698
   5.500   1.2439   0.01011   0.00497  -0.1503  0.5531  1.0000  -1.6514   0.0000   0.3629
   6.000   1.2848   0.01080   0.00551  -0.1476  0.5130  1.0000  -1.7855   0.0000   0.3563
   6.500   1.3227   0.01160   0.00617  -0.1444  0.4714  1.0000  -1.9483   0.0000   0.3499
   7.000   1.3559   0.01248   0.00693  -0.1405  0.4289  1.0000  -2.2095   0.0000   0.3436
   7.500   1.3850   0.01352   0.00782  -0.1359  0.3858  1.0000  -2.5537   0.0000   0.3374
   8.000   1.4127   0.01470   0.00887  -0.1313  0.3446  1.0000  -2.9129   0.0000   0.3315


