XFLR5 v6.06

 Calculated polar for: fab_f_d

 1 1 Reynolds number fixed          Mach number fixed         

 xtrf =   1.000 (top)        1.000 (bottom)
 Mach =   0.000     Re =     0.450 e 6     Ncrit =   9.000

  alpha     CL        CD       CDp       Cm    Top Xtr Bot Xtr   Cpmin    Chinge    XCp    
 ------- -------- --------- --------- -------- ------- ------- -------- --------- ---------
  -8.000  -0.1336   0.01661   0.01063  -0.1713  0.8581  0.0347  -4.4546   0.0000  -1.0803
  -7.500  -0.0799   0.01566   0.00950  -0.1717  0.8527  0.0381  -3.9894   0.0000  -1.9729
  -7.000  -0.0294   0.01476   0.00849  -0.1712  0.8464  0.0415  -3.5579   0.0000  -5.7504
  -6.500   0.0253   0.01395   0.00759  -0.1715  0.8406  0.0457  -3.1191   0.0000   7.2346
  -6.000   0.0781   0.01326   0.00686  -0.1714  0.8350  0.0505  -2.7074   0.0000   2.5019
  -5.500   0.1326   0.01268   0.00617  -0.1714  0.8292  0.0572  -2.3130   0.0000   1.5746
  -5.000   0.1898   0.01211   0.00557  -0.1721  0.8244  0.0662  -2.0296   0.0000   1.1765
  -4.500   0.2424   0.01164   0.00512  -0.1717  0.8174  0.0776  -1.7702   0.0000   0.9722
  -4.000   0.2997   0.01120   0.00469  -0.1723  0.8117  0.0924  -1.5188   0.0000   0.8347
  -3.500   0.3548   0.01087   0.00441  -0.1724  0.8057  0.1137  -1.2810   0.0000   0.7430
  -3.000   0.4108   0.01055   0.00418  -0.1727  0.7992  0.1473  -1.0686   0.0000   0.6754
  -2.500   0.4683   0.01028   0.00400  -0.1732  0.7930  0.1930  -0.8724   0.0000   0.6234
  -2.000   0.5231   0.00999   0.00388  -0.1732  0.7856  0.2505  -0.7648   0.0000   0.5835
  -1.500   0.5817   0.00968   0.00376  -0.1740  0.7794  0.3360  -0.8033   0.0000   0.5504
  -1.000   0.6356   0.00926   0.00374  -0.1740  0.7708  0.4669  -0.8407   0.0000   0.5240
  -0.500   0.6916   0.00884   0.00383  -0.1741  0.7639  0.6575  -0.8838   0.0000   0.5012
   0.000   0.7440   0.00875   0.00390  -0.1730  0.7544  0.7507  -0.9264   0.0000   0.4813
   0.500   0.7969   0.00878   0.00399  -0.1721  0.7460  0.8000  -0.9745   0.0000   0.4640
   1.000   0.8501   0.00875   0.00395  -0.1713  0.7365  0.8345  -1.0264   0.0000   0.4488
   1.500   0.8994   0.00870   0.00397  -0.1696  0.7249  0.8644  -1.0769   0.0000   0.4353
   2.000   0.9485   0.00866   0.00396  -0.1680  0.7132  0.8927  -1.1363   0.0000   0.4231
   2.500   0.9931   0.00854   0.00389  -0.1653  0.6998  0.9269  -1.1931   0.0000   0.4118
   3.000   1.0476   0.00843   0.00381  -0.1650  0.6843  1.0000  -1.2571   0.0000   0.4022
   3.500   1.1035   0.00858   0.00391  -0.1653  0.6666  1.0000  -1.3313   0.0000   0.3939
   4.000   1.1576   0.00879   0.00404  -0.1652  0.6473  1.0000  -1.4083   0.0000   0.3861
   4.500   1.2075   0.00908   0.00427  -0.1643  0.6212  1.0000  -1.4831   0.0000   0.3788
   5.000   1.2550   0.00948   0.00458  -0.1629  0.5919  1.0000  -1.5733   0.0000   0.3718
   5.500   1.2996   0.01000   0.00499  -0.1609  0.5611  1.0000  -1.6660   0.0000   0.3651
   6.000   1.3393   0.01066   0.00551  -0.1581  0.5240  1.0000  -1.7653   0.0000   0.3586
   6.500   1.3757   0.01142   0.00615  -0.1547  0.4898  1.0000  -1.8716   0.0000   0.3523
   7.000   1.4064   0.01228   0.00689  -0.1503  0.4555  1.0000  -1.9816   0.0000   0.3460
   7.500   1.4350   0.01328   0.00779  -0.1458  0.4219  1.0000  -2.1050   0.0000   0.3400
   8.000   1.4618   0.01442   0.00884  -0.1412  0.3887  1.0000  -2.2971   0.0000   0.3342


