XFLR5 v6.06

 Calculated polar for: fab_d_f

 1 1 Reynolds number fixed          Mach number fixed         

 xtrf =   1.000 (top)        1.000 (bottom)
 Mach =   0.000     Re =     0.550 e 6     Ncrit =   9.000

  alpha     CL        CD       CDp       Cm    Top Xtr Bot Xtr   Cpmin    Chinge    XCp    
 ------- -------- --------- --------- -------- ------- ------- -------- --------- ---------
  -8.000  -0.1851   0.01417   0.00860  -0.1622  0.8902  0.0239  -5.1613   0.0000  -0.6570
  -7.500  -0.1297   0.01332   0.00761  -0.1629  0.8825  0.0278  -4.5852   0.0000  -1.0459
  -7.000  -0.0780   0.01261   0.00675  -0.1626  0.8738  0.0323  -4.0502   0.0000  -1.8946
  -6.500  -0.0226   0.01200   0.00606  -0.1630  0.8665  0.0376  -3.5105   0.0000  -7.1542
  -6.000   0.0308   0.01138   0.00537  -0.1629  0.8585  0.0435  -3.0309   0.0000   5.6601
  -5.500   0.0867   0.01083   0.00474  -0.1633  0.8518  0.0511  -2.5947   0.0000   2.1738
  -5.000   0.1411   0.01033   0.00421  -0.1633  0.8443  0.0616  -2.1834   0.0000   1.4294
  -4.500   0.1973   0.00990   0.00376  -0.1636  0.8370  0.0760  -1.7854   0.0000   1.0935
  -4.000   0.2523   0.00952   0.00341  -0.1636  0.8290  0.0948  -1.4965   0.0000   0.9082
  -3.500   0.3089   0.00920   0.00312  -0.1640  0.8223  0.1234  -1.2455   0.0000   0.7877
  -3.000   0.3643   0.00887   0.00291  -0.1641  0.8142  0.1652  -1.0180   0.0000   0.7052
  -2.500   0.4205   0.00861   0.00276  -0.1643  0.8064  0.2191  -0.8063   0.0000   0.6442
  -2.000   0.4765   0.00833   0.00264  -0.1646  0.7984  0.2887  -0.6879   0.0000   0.5975
  -1.500   0.5320   0.00805   0.00259  -0.1648  0.7897  0.3785  -0.7229   0.0000   0.5608
  -1.000   0.5886   0.00773   0.00255  -0.1651  0.7812  0.5025  -0.7615   0.0000   0.5308
  -0.500   0.6422   0.00741   0.00263  -0.1647  0.7710  0.6432  -0.8015   0.0000   0.5060
   0.000   0.6961   0.00733   0.00272  -0.1641  0.7611  0.7347  -0.8433   0.0000   0.4846
   0.500   0.7501   0.00733   0.00277  -0.1635  0.7510  0.7924  -0.8931   0.0000   0.4661
   1.000   0.8015   0.00731   0.00282  -0.1623  0.7380  0.8294  -0.9418   0.0000   0.4501
   1.500   0.8521   0.00731   0.00288  -0.1610  0.7250  0.8636  -0.9979   0.0000   0.4359
   2.000   0.9002   0.00730   0.00291  -0.1590  0.7099  0.8996  -1.0542   0.0000   0.4231
   2.500   0.9444   0.00723   0.00288  -0.1562  0.6931  0.9484  -1.1095   0.0000   0.4112
   3.000   1.0033   0.00732   0.00296  -0.1571  0.6746  1.0000  -1.1856   0.0000   0.4018
   3.500   1.0565   0.00755   0.00311  -0.1567  0.6507  1.0000  -1.2582   0.0000   0.3930
   4.000   1.1075   0.00785   0.00332  -0.1559  0.6230  1.0000  -1.3440   0.0000   0.3848
   4.500   1.1564   0.00824   0.00360  -0.1547  0.5916  1.0000  -1.4393   0.0000   0.3771
   5.000   1.2021   0.00875   0.00398  -0.1529  0.5529  1.0000  -1.5429   0.0000   0.3699
   5.500   1.2455   0.00938   0.00445  -0.1507  0.5138  1.0000  -1.6559   0.0000   0.3630
   6.000   1.2870   0.01007   0.00501  -0.1482  0.4730  1.0000  -1.7914   0.0000   0.3565
   6.500   1.3255   0.01086   0.00565  -0.1452  0.4306  1.0000  -1.9574   0.0000   0.3502
   7.000   1.3589   0.01175   0.00638  -0.1413  0.3874  1.0000  -2.2272   0.0000   0.3440
   7.500   1.3909   0.01275   0.00723  -0.1373  0.3467  1.0000  -2.5895   0.0000   0.3380
   8.000   1.4196   0.01393   0.00824  -0.1329  0.3034  1.0000  -2.9558   0.0000   0.3322


