XFLR5 v6.06

 Calculated polar for: fab_d_f

 1 1 Reynolds number fixed          Mach number fixed         

 xtrf =   1.000 (top)        1.000 (bottom)
 Mach =   0.000     Re =     0.100 e 6     Ncrit =   9.000

  alpha     CL        CD       CDp       Cm    Top Xtr Bot Xtr   Cpmin    Chinge    XCp    
 ------- -------- --------- --------- -------- ------- ------- -------- --------- ---------
  -8.000  -0.4003   0.11449   0.11038  -0.0225  1.0000  0.1015  -1.8022   0.0000   0.1841
  -7.500  -0.4403   0.11097   0.10702  -0.0248  0.9976  0.1051  -1.9981   0.0000   0.1855
  -7.000  -0.4261   0.10420   0.10027  -0.0291  0.9891  0.1127  -1.9922   0.0000   0.1737
  -6.000  -0.3506   0.08682   0.08308  -0.0451  0.9570  0.1397  -1.8519   0.0000   0.1148
  -5.500  -0.3698   0.08184   0.07788  -0.0478  0.9592  0.1460  -1.9565   0.0000   0.1132
  -5.000  -0.3342   0.07244   0.06834  -0.0601  0.9482  0.1645  -1.9494   0.0000   0.0627
  -4.500  -0.2750   0.06378   0.05938  -0.0732  0.9386  0.1946  -1.8565   0.0000  -0.0246
  -4.000  -0.1246   0.03435   0.02620  -0.1093  0.9360  0.1074  -2.4015   0.0000  -0.6488
  -3.500  -0.0556   0.03252   0.02396  -0.1128  0.9268  0.1258  -2.0660   0.0000  -1.8226
  -3.000   0.0062   0.03143   0.02258  -0.1148  0.9162  0.1512  -1.7390   0.0000  19.1987
  -2.500   0.0719   0.03075   0.02198  -0.1175  0.9056  0.1885  -1.4572   0.0000   1.9106
  -2.000   0.1515   0.03008   0.02153  -0.1224  0.8966  0.2573  -1.1995   0.0000   1.0682
  -1.500   0.2096   0.02965   0.02155  -0.1238  0.8838  0.3625  -0.9928   0.0000   0.8463
  -1.000   0.2643   0.02918   0.02210  -0.1240  0.8712  0.5829  -0.8073   0.0000   0.7225
  -0.500   0.2931   0.02919   0.02277  -0.1169  0.8572  0.8455  -0.6771   0.0000   0.6506
   0.000   0.3512   0.02932   0.02266  -0.1173  0.8422  1.0000  -0.6074   0.0000   0.5844
   0.500   0.4180   0.03000   0.02298  -0.1202  0.8277  1.0000  -0.6531   0.0000   0.5367
   1.000   0.4819   0.03067   0.02339  -0.1223  0.8132  1.0000  -0.7028   0.0000   0.5020
   1.500   0.5464   0.03119   0.02371  -0.1241  0.7983  1.0000  -0.7544   0.0000   0.4747
   2.500   0.6770   0.03166   0.02397  -0.1272  0.7683  1.0000  -0.8765   0.0000   0.4341
   3.000   0.7425   0.03163   0.02390  -0.1284  0.7534  1.0000  -0.9418   0.0000   0.4185
   4.500   0.9560   0.02909   0.02154  -0.1322  0.7102  1.0000  -1.2031   0.0000   0.3821
   5.000   1.0363   0.02740   0.01999  -0.1343  0.6957  1.0000  -1.3233   0.0000   0.3727
   5.500   1.1163   0.02569   0.01843  -0.1364  0.6798  1.0000  -1.4595   0.0000   0.3646
   6.000   1.1834   0.02447   0.01735  -0.1366  0.6570  1.0000  -1.6009   0.0000   0.3572
   6.500   1.2594   0.02301   0.01600  -0.1381  0.6317  1.0000  -1.7886   0.0000   0.3507
   7.000   1.3128   0.02262   0.01571  -0.1364  0.5963  1.0000  -2.0041   0.0000   0.3443
   7.500   1.3674   0.02249   0.01558  -0.1351  0.5568  1.0000  -2.3745   0.0000   0.3384
   8.000   1.4108   0.02303   0.01607  -0.1322  0.5126  1.0000  -2.7768   0.0000   0.3325


