XFLR5 v6.06

 Calculated polar for: fab_f_d

 1 1 Reynolds number fixed          Mach number fixed         

 xtrf =   1.000 (top)        1.000 (bottom)
 Mach =   0.000     Re =     0.600 e 6     Ncrit =   9.000

  alpha     CL        CD       CDp       Cm    Top Xtr Bot Xtr   Cpmin    Chinge    XCp    
 ------- -------- --------- --------- -------- ------- ------- -------- --------- ---------
  -8.000  -0.1342   0.01431   0.00847  -0.1710  0.8403  0.0312  -4.5483   0.0000  -1.0721
  -7.500  -0.0818   0.01358   0.00765  -0.1710  0.8348  0.0344  -4.0684   0.0000  -1.9123
  -7.000  -0.0285   0.01283   0.00681  -0.1711  0.8291  0.0376  -3.6072   0.0000  -5.9521
  -6.500   0.0269   0.01217   0.00606  -0.1715  0.8239  0.0415  -3.1567   0.0000   6.8130
  -6.000   0.0802   0.01156   0.00545  -0.1714  0.8184  0.0460  -2.7331   0.0000   2.4443
  -5.500   0.1361   0.01108   0.00490  -0.1717  0.8133  0.0522  -2.3314   0.0000   1.5419
  -5.000   0.1922   0.01064   0.00443  -0.1721  0.8080  0.0606  -2.0436   0.0000   1.1643
  -4.500   0.2471   0.01022   0.00401  -0.1721  0.8018  0.0714  -1.7741   0.0000   0.9598
  -4.000   0.3044   0.00987   0.00366  -0.1726  0.7964  0.0852  -1.5187   0.0000   0.8265
  -3.500   0.3599   0.00959   0.00342  -0.1727  0.7905  0.1044  -1.2769   0.0000   0.7368
  -3.000   0.4163   0.00927   0.00319  -0.1730  0.7842  0.1358  -1.0621   0.0000   0.6705
  -2.500   0.4733   0.00902   0.00304  -0.1734  0.7782  0.1771  -0.8662   0.0000   0.6199
  -2.000   0.5289   0.00875   0.00291  -0.1736  0.7711  0.2267  -0.7698   0.0000   0.5804
  -1.500   0.5867   0.00851   0.00281  -0.1742  0.7647  0.2980  -0.8080   0.0000   0.5480
  -1.000   0.6416   0.00818   0.00277  -0.1743  0.7567  0.3962  -0.8459   0.0000   0.5218
  -0.500   0.6982   0.00777   0.00276  -0.1747  0.7489  0.5618  -0.8892   0.0000   0.4996
   0.000   0.7517   0.00752   0.00289  -0.1742  0.7403  0.7031  -0.9324   0.0000   0.4804
   0.500   0.8058   0.00752   0.00297  -0.1736  0.7313  0.7652  -0.9816   0.0000   0.4634
   1.000   0.8600   0.00754   0.00298  -0.1731  0.7213  0.8049  -1.0342   0.0000   0.4485
   1.500   0.9117   0.00754   0.00305  -0.1721  0.7096  0.8327  -1.0870   0.0000   0.4353
   2.000   0.9637   0.00757   0.00310  -0.1712  0.6963  0.8573  -1.1485   0.0000   0.4236
   2.500   1.0137   0.00760   0.00317  -0.1698  0.6817  0.8819  -1.2091   0.0000   0.4128
   3.000   1.0609   0.00763   0.00323  -0.1679  0.6649  0.9098  -1.2683   0.0000   0.4029
   3.500   1.1074   0.00761   0.00326  -0.1658  0.6467  0.9732  -1.3362   0.0000   0.3937
   4.000   1.1614   0.00787   0.00345  -0.1658  0.6223  1.0000  -1.4131   0.0000   0.3861
   4.500   1.2110   0.00825   0.00371  -0.1648  0.5924  1.0000  -1.4877   0.0000   0.3788
   5.000   1.2582   0.00872   0.00407  -0.1634  0.5627  1.0000  -1.5780   0.0000   0.3719
   5.500   1.3009   0.00933   0.00453  -0.1612  0.5265  1.0000  -1.6692   0.0000   0.3652
   6.000   1.3412   0.01001   0.00508  -0.1585  0.4914  1.0000  -1.7691   0.0000   0.3588
   6.500   1.3768   0.01075   0.00569  -0.1550  0.4571  1.0000  -1.8750   0.0000   0.3524
   7.000   1.4087   0.01162   0.00644  -0.1509  0.4233  1.0000  -1.9872   0.0000   0.3462
   7.500   1.4398   0.01256   0.00727  -0.1468  0.3901  1.0000  -2.1150   0.0000   0.3403
   8.000   1.4686   0.01366   0.00827  -0.1426  0.3582  1.0000  -2.3209   0.0000   0.3347


