XFLR5 v6.06

 Calculated polar for: fab_b_h

 1 1 Reynolds number fixed          Mach number fixed         

 xtrf =   1.000 (top)        1.000 (bottom)
 Mach =   0.000     Re =     0.050 e 6     Ncrit =   9.000

  alpha     CL        CD       CDp       Cm    Top Xtr Bot Xtr   Cpmin    Chinge    XCp    
 ------- -------- --------- --------- -------- ------- ------- -------- --------- ---------
  -8.000  -0.3720   0.11407   0.10791  -0.0247  1.0000  0.2221  -1.5839   0.0000   0.1750
  -7.500  -0.3811   0.10964   0.10363  -0.0206  1.0000  0.2345  -1.5983   0.0000   0.1882
  -7.000  -0.3988   0.10607   0.10023  -0.0160  1.0000  0.2480  -1.6250   0.0000   0.2030
  -6.500  -0.4221   0.10286   0.09721  -0.0107  1.0000  0.2620  -1.6565   0.0000   0.2187
  -6.000  -0.4494   0.09967   0.09421  -0.0072  1.0000  0.2773  -1.7038   0.0000   0.2289
  -5.500  -0.4476   0.09373   0.08836  -0.0027  1.0000  0.2970  -1.6844   0.0000   0.2394
  -5.000  -0.4616   0.08913   0.08390  -0.0011  1.0000  0.3228  -1.7091   0.0000   0.2436
  -4.500  -0.4588   0.08374   0.07858   0.0034  1.0000  0.3551  -1.6798   0.0000   0.2537
  -4.000  -0.3222   0.04739   0.03984  -0.0668  1.0000  0.1509  -2.4388   0.0000   0.0371
  -3.500  -0.2535   0.04016   0.03153  -0.0736  1.0000  0.1629  -2.3186   0.0000  -0.0472
  -3.000  -0.1940   0.03630   0.02701  -0.0765  1.0000  0.1886  -2.1160   0.0000  -0.1524
  -2.500  -0.1384   0.03391   0.02420  -0.0780  1.0000  0.2291  -1.8882   0.0000  -0.3238
  -2.000  -0.0865   0.03245   0.02258  -0.0786  1.0000  0.2891  -1.6323   0.0000  -0.6734
  -1.500  -0.0360   0.03155   0.02188  -0.0788  1.0000  0.3832  -1.3593   0.0000  -1.9645
  -1.000   0.0122   0.03099   0.02204  -0.0777  1.0000  0.5590  -1.1346   0.0000   6.6682
  -0.500   0.0168   0.02983   0.02220  -0.0654  1.0000  0.8877  -1.0300   0.0000   4.1783
   0.000   0.0671   0.03070   0.02209  -0.0695  1.0000  1.0000  -0.8523   0.0000   1.2910
   0.500   0.1133   0.03248   0.02326  -0.0712  1.0000  1.0000  -0.6829   0.0000   0.8799
   1.000   0.1556   0.03445   0.02480  -0.0724  1.0000  1.0000  -0.5458   0.0000   0.7143
   1.500   0.2411   0.03790   0.02781  -0.0814  0.9744  1.0000  -0.5001   0.0000   0.5856
   2.000   0.3196   0.04076   0.03037  -0.0886  0.9444  1.0000  -0.5520   0.0000   0.5244
   2.500   0.3929   0.04336   0.03277  -0.0944  0.9147  1.0000  -0.6080   0.0000   0.4867
   3.000   0.4624   0.04577   0.03509  -0.0991  0.8852  1.0000  -0.6635   0.0000   0.4602
   3.500   0.5290   0.04805   0.03735  -0.1029  0.8557  1.0000  -0.7254   0.0000   0.4399
   4.000   0.5965   0.05013   0.03945  -0.1063  0.8255  1.0000  -0.7929   0.0000   0.4231
   4.500   0.6570   0.05205   0.04147  -0.1084  0.7944  1.0000  -0.8636   0.0000   0.4093
   5.000   0.7089   0.05400   0.04356  -0.1091  0.7623  1.0000  -0.9354   0.0000   0.3978
   5.500   0.7639   0.05570   0.04548  -0.1097  0.7294  1.0000  -1.0212   0.0000   0.3870
   6.000   0.8246   0.05693   0.04697  -0.1103  0.6968  1.0000  -1.1268   0.0000   0.3766
   6.500   0.8935   0.05724   0.04763  -0.1108  0.6649  1.0000  -1.2659   0.0000   0.3663
   8.000   1.1853   0.04471   0.03676  -0.1088  0.5630  1.0000  -2.4346   0.0000   0.3321


