XFLR5 v6.06

 Calculated polar for: fab_f_d

 1 1 Reynolds number fixed          Mach number fixed         

 xtrf =   1.000 (top)        1.000 (bottom)
 Mach =   0.000     Re =     0.400 e 6     Ncrit =   9.000

  alpha     CL        CD       CDp       Cm    Top Xtr Bot Xtr   Cpmin    Chinge    XCp    
 ------- -------- --------- --------- -------- ------- ------- -------- --------- ---------
  -8.000  -0.1317   0.01803   0.01210  -0.1717  0.8668  0.0362  -4.3814   0.0000  -1.1028
  -7.500  -0.0829   0.01689   0.01077  -0.1713  0.8599  0.0396  -3.9538   0.0000  -1.8882
  -7.000  -0.0285   0.01579   0.00946  -0.1717  0.8546  0.0433  -3.5184   0.0000  -5.9726
  -6.500   0.0223   0.01494   0.00848  -0.1712  0.8479  0.0476  -3.1067   0.0000   8.1497
  -6.000   0.0768   0.01414   0.00753  -0.1713  0.8421  0.0528  -2.6987   0.0000   2.5415
  -5.500   0.1313   0.01342   0.00682  -0.1716  0.8368  0.0594  -2.3016   0.0000   1.5884
  -5.000   0.1841   0.01282   0.00621  -0.1714  0.8306  0.0682  -2.0339   0.0000   1.2014
  -4.500   0.2420   0.01230   0.00565  -0.1720  0.8250  0.0804  -1.7630   0.0000   0.9749
  -4.000   0.2949   0.01192   0.00530  -0.1717  0.8180  0.0955  -1.5243   0.0000   0.8423
  -3.500   0.3520   0.01149   0.00491  -0.1722  0.8122  0.1176  -1.2834   0.0000   0.7465
  -3.000   0.4078   0.01121   0.00471  -0.1725  0.8061  0.1520  -1.0726   0.0000   0.6782
  -2.500   0.4635   0.01089   0.00451  -0.1727  0.7988  0.1985  -0.8794   0.0000   0.6262
  -2.000   0.5209   0.01061   0.00438  -0.1732  0.7925  0.2607  -0.7626   0.0000   0.5850
  -1.500   0.5759   0.01027   0.00431  -0.1734  0.7848  0.3526  -0.7990   0.0000   0.5524
  -1.000   0.6330   0.00983   0.00426  -0.1739  0.7775  0.5021  -0.8383   0.0000   0.5251
  -0.500   0.6857   0.00945   0.00441  -0.1732  0.7693  0.6866  -0.8795   0.0000   0.5022
   0.000   0.7386   0.00942   0.00449  -0.1722  0.7606  0.7655  -0.9223   0.0000   0.4819
   0.500   0.7923   0.00939   0.00447  -0.1713  0.7521  0.8138  -0.9709   0.0000   0.4643
   1.000   0.8419   0.00939   0.00452  -0.1697  0.7420  0.8483  -1.0203   0.0000   0.4490
   1.500   0.8916   0.00930   0.00446  -0.1681  0.7314  0.8794  -1.0707   0.0000   0.4352
   2.000   0.9399   0.00916   0.00432  -0.1661  0.7208  0.9108  -1.1296   0.0000   0.4227
   2.500   0.9852   0.00895   0.00417  -0.1636  0.7075  0.9604  -1.1868   0.0000   0.4114
   3.000   1.0464   0.00896   0.00415  -0.1650  0.6924  1.0000  -1.2554   0.0000   0.4024
   3.500   1.1017   0.00909   0.00424  -0.1652  0.6753  1.0000  -1.3289   0.0000   0.3940
   4.000   1.1546   0.00927   0.00441  -0.1648  0.6555  1.0000  -1.4048   0.0000   0.3861
   4.500   1.2059   0.00953   0.00457  -0.1641  0.6325  1.0000  -1.4808   0.0000   0.3788
   5.000   1.2532   0.00989   0.00485  -0.1626  0.6038  1.0000  -1.5707   0.0000   0.3718
   5.500   1.2984   0.01037   0.00524  -0.1608  0.5742  1.0000  -1.6639   0.0000   0.3651
   6.000   1.3390   0.01099   0.00575  -0.1581  0.5379  1.0000  -1.7640   0.0000   0.3586
   6.500   1.3754   0.01176   0.00638  -0.1547  0.5027  1.0000  -1.8702   0.0000   0.3523
   7.000   1.4064   0.01261   0.00712  -0.1503  0.4688  1.0000  -1.9804   0.0000   0.3460
   7.500   1.4346   0.01359   0.00801  -0.1456  0.4346  1.0000  -2.1032   0.0000   0.3399
   8.000   1.4608   0.01474   0.00908  -0.1409  0.4010  1.0000  -2.2919   0.0000   0.3341


