XFLR5 v6.06

 Calculated polar for: fab_d_f

 1 1 Reynolds number fixed          Mach number fixed         

 xtrf =   1.000 (top)        1.000 (bottom)
 Mach =   0.000     Re =     0.350 e 6     Ncrit =   9.000

  alpha     CL        CD       CDp       Cm    Top Xtr Bot Xtr   Cpmin    Chinge    XCp    
 ------- -------- --------- --------- -------- ------- ------- -------- --------- ---------
  -8.000  -0.2051   0.01897   0.01325  -0.1584  0.9178  0.0277  -5.0180   0.0000  -0.5497
  -7.500  -0.1441   0.01741   0.01139  -0.1607  0.9118  0.0329  -4.4750   0.0000  -0.9010
  -7.000  -0.0926   0.01638   0.01012  -0.1606  0.9028  0.0382  -3.9799   0.0000  -1.5349
  -6.500  -0.0316   0.01531   0.00892  -0.1623  0.8969  0.0444  -3.4454   0.0000  -5.0265
  -6.000   0.0185   0.01438   0.00789  -0.1616  0.8875  0.0507  -3.0105   0.0000   9.2158
  -5.500   0.0768   0.01350   0.00693  -0.1625  0.8811  0.0594  -2.5835   0.0000   2.4121
  -5.000   0.1291   0.01282   0.00624  -0.1622  0.8727  0.0706  -2.1925   0.0000   1.5311
  -4.500   0.1868   0.01223   0.00563  -0.1629  0.8661  0.0869  -1.7985   0.0000   1.1372
  -4.000   0.2412   0.01172   0.00513  -0.1628  0.8573  0.1080  -1.5067   0.0000   0.9355
  -3.500   0.2973   0.01132   0.00478  -0.1631  0.8496  0.1406  -1.2604   0.0000   0.8060
  -3.000   0.3539   0.01090   0.00450  -0.1636  0.8419  0.1895  -1.0336   0.0000   0.7174
  -2.500   0.4089   0.01058   0.00434  -0.1637  0.8334  0.2535  -0.8248   0.0000   0.6538
  -2.000   0.4675   0.01018   0.00415  -0.1645  0.8255  0.3442  -0.6803   0.0000   0.6040
  -1.500   0.5207   0.00985   0.00418  -0.1642  0.8163  0.4652  -0.7139   0.0000   0.5667
  -1.000   0.5769   0.00946   0.00420  -0.1642  0.8077  0.6250  -0.7524   0.0000   0.5351
  -0.500   0.6290   0.00933   0.00431  -0.1631  0.7978  0.7355  -0.7918   0.0000   0.5089
   0.000   0.6793   0.00934   0.00442  -0.1615  0.7873  0.8012  -0.8314   0.0000   0.4867
   0.500   0.7298   0.00929   0.00440  -0.1598  0.7764  0.8481  -0.8785   0.0000   0.4673
   1.000   0.7787   0.00921   0.00432  -0.1578  0.7662  0.8898  -0.9257   0.0000   0.4503
   2.000   0.8830   0.00893   0.00408  -0.1557  0.7391  1.0000  -1.0401   0.0000   0.4228
   2.500   0.9402   0.00900   0.00408  -0.1562  0.7240  1.0000  -1.1034   0.0000   0.4120
   3.000   0.9962   0.00907   0.00409  -0.1562  0.7070  1.0000  -1.1773   0.0000   0.4021
   3.500   1.0490   0.00922   0.00423  -0.1557  0.6877  1.0000  -1.2494   0.0000   0.3931
   4.000   1.1009   0.00939   0.00435  -0.1550  0.6645  1.0000  -1.3353   0.0000   0.3848
   4.500   1.1506   0.00965   0.00456  -0.1538  0.6371  1.0000  -1.4303   0.0000   0.3771
   5.000   1.1984   0.01002   0.00487  -0.1523  0.6063  1.0000  -1.5351   0.0000   0.3698
   5.500   1.2427   0.01053   0.00527  -0.1501  0.5688  1.0000  -1.6485   0.0000   0.3629
   6.000   1.2841   0.01119   0.00579  -0.1475  0.5294  1.0000  -1.7832   0.0000   0.3563
   6.500   1.3223   0.01196   0.00645  -0.1443  0.4881  1.0000  -1.9458   0.0000   0.3499
   7.000   1.3561   0.01286   0.00721  -0.1404  0.4453  1.0000  -2.2066   0.0000   0.3436
   7.500   1.3845   0.01388   0.00810  -0.1357  0.4023  1.0000  -2.5460   0.0000   0.3373
   8.000   1.4107   0.01509   0.00918  -0.1308  0.3611  1.0000  -2.8980   0.0000   0.3313


