XFLR5 v6.06

 Calculated polar for: fab_f_d

 1 1 Reynolds number fixed          Mach number fixed         

 xtrf =   1.000 (top)        1.000 (bottom)
 Mach =   0.000     Re =     0.150 e 6     Ncrit =   9.000

  alpha     CL        CD       CDp       Cm    Top Xtr Bot Xtr   Cpmin    Chinge    XCp    
 ------- -------- --------- --------- -------- ------- ------- -------- --------- ---------
  -8.000  -0.1384   0.08914   0.08522  -0.0927  0.9399  0.0940  -1.7116   0.0000  -0.4578
  -7.500  -0.1483   0.08396   0.08011  -0.0942  0.9274  0.0987  -1.7845   0.0000  -0.4189
  -6.000  -0.1797   0.04125   0.03585  -0.1277  0.8864  0.0699  -2.9637   0.0000  -0.4852
  -5.500  -0.1020   0.03344   0.02670  -0.1367  0.8831  0.0746  -2.7860   0.0000  -1.1313
  -5.000  -0.0575   0.03112   0.02379  -0.1364  0.8732  0.0806  -2.5306   0.0000  -2.1881
  -4.500   0.0226   0.02866   0.02079  -0.1413  0.8690  0.0916  -2.1551   0.0000   6.6710
  -4.000   0.0648   0.02806   0.02003  -0.1398  0.8589  0.1023  -1.9354   0.0000   2.4568
  -3.500   0.1421   0.02671   0.01858  -0.1439  0.8546  0.1221  -1.6640   0.0000   1.2823
  -3.000   0.1841   0.02666   0.01856  -0.1423  0.8437  0.1420  -1.4766   0.0000   1.0362
  -2.500   0.2665   0.02552   0.01750  -0.1470  0.8397  0.1839  -1.2129   0.0000   0.8093
  -1.500   0.3688   0.02516   0.01773  -0.1468  0.8182  0.3186  -0.8581   0.0000   0.6514
  -1.000   0.4409   0.02401   0.01749  -0.1498  0.8124  0.5354  -0.7042   0.0000   0.5915
   0.000   0.5342   0.02301   0.01719  -0.1419  0.7957  0.8902  -0.7801   0.0000   0.5151
   0.500   0.5809   0.02311   0.01722  -0.1402  0.7826  1.0000  -0.8164   0.0000   0.4900
   1.000   0.6733   0.02227   0.01613  -0.1461  0.7799  1.0000  -0.8916   0.0000   0.4649
   1.500   0.7321   0.02229   0.01601  -0.1469  0.7669  1.0000  -0.9447   0.0000   0.4477
   2.500   0.8499   0.02226   0.01581  -0.1479  0.7427  1.0000  -1.0658   0.0000   0.4197
   3.000   0.9374   0.02076   0.01423  -0.1522  0.7369  1.0000  -1.1545   0.0000   0.4074
   3.500   0.9971   0.02039   0.01385  -0.1525  0.7234  1.0000  -1.2238   0.0000   0.3972
   4.000   1.0582   0.01993   0.01340  -0.1529  0.7098  1.0000  -1.3055   0.0000   0.3881
   4.500   1.1228   0.01916   0.01263  -0.1537  0.6950  1.0000  -1.3919   0.0000   0.3798
   5.000   1.1864   0.01851   0.01200  -0.1543  0.6789  1.0000  -1.4885   0.0000   0.3724
   5.500   1.2420   0.01821   0.01174  -0.1538  0.6592  1.0000  -1.5888   0.0000   0.3654
   6.000   1.2976   0.01786   0.01140  -0.1532  0.6352  1.0000  -1.7001   0.0000   0.3589
   6.500   1.3463   0.01791   0.01146  -0.1515  0.6069  1.0000  -1.8153   0.0000   0.3526
   7.000   1.3945   0.01814   0.01165  -0.1498  0.5758  1.0000  -1.9432   0.0000   0.3467
   7.500   1.4336   0.01874   0.01219  -0.1467  0.5397  1.0000  -2.0814   0.0000   0.3408
   8.000   1.4694   0.01961   0.01298  -0.1432  0.5039  1.0000  -2.2826   0.0000   0.3352


