XFLR5 v6.06

 Calculated polar for: fab_h_b

 1 1 Reynolds number fixed          Mach number fixed         

 xtrf =   1.000 (top)        1.000 (bottom)
 Mach =   0.000     Re =     0.250 e 6     Ncrit =   9.000

  alpha     CL        CD       CDp       Cm    Top Xtr Bot Xtr   Cpmin    Chinge    XCp    
 ------- -------- --------- --------- -------- ------- ------- -------- --------- ---------
  -8.000   0.0020   0.04775   0.04399  -0.1679  0.8741  0.0573  -2.5394   0.0000  89.5007
  -7.500  -0.0543   0.02652   0.02058  -0.1761  0.8604  0.0514  -3.3980   0.0000  -3.1208
  -7.000  -0.0041   0.02409   0.01775  -0.1768  0.8551  0.0545  -3.0829   0.0000  -43.9890
  -6.500   0.0411   0.02232   0.01559  -0.1762  0.8491  0.0582  -2.8050   0.0000   4.6755
  -6.000   0.0912   0.02100   0.01400  -0.1759  0.8429  0.0630  -2.5624   0.0000   2.2379
  -5.500   0.1494   0.01980   0.01260  -0.1768  0.8392  0.0692  -2.3009   0.0000   1.4668
  -5.000   0.1927   0.01929   0.01198  -0.1750  0.8314  0.0763  -2.0933   0.0000   1.1816
  -4.500   0.2511   0.01841   0.01111  -0.1757  0.8263  0.0865  -1.8448   0.0000   0.9661
  -4.000   0.3010   0.01799   0.01070  -0.1750  0.8192  0.0991  -1.6235   0.0000   0.8434
  -3.500   0.3563   0.01753   0.01027  -0.1752  0.8133  0.1159  -1.4082   0.0000   0.7506
  -3.000   0.4194   0.01697   0.00973  -0.1767  0.8095  0.1418  -1.1924   0.0000   0.6776
  -2.500   0.4647   0.01693   0.00986  -0.1753  0.8002  0.1749  -1.0206   0.0000   0.6319
  -2.000   0.5293   0.01627   0.00933  -0.1770  0.7956  0.2291  -0.8244   0.0000   0.5874
  -1.500   0.5770   0.01625   0.00957  -0.1760  0.7866  0.3003  -0.8445   0.0000   0.5570
  -1.000   0.6408   0.01541   0.00926  -0.1778  0.7815  0.4671  -0.8884   0.0000   0.5283
  -0.500   0.6849   0.01513   0.00975  -0.1751  0.7720  0.7139  -0.9256   0.0000   0.5056
   0.000   0.7415   0.01492   0.00954  -0.1742  0.7664  0.8006  -0.9722   0.0000   0.4838
   0.500   0.7818   0.01507   0.00974  -0.1705  0.7564  0.8489  -1.0091   0.0000   0.4662
   1.000   0.8358   0.01447   0.00908  -0.1688  0.7505  0.8923  -1.0640   0.0000   0.4492
   1.500   0.8679   0.01433   0.00902  -0.1636  0.7393  0.9347  -1.1036   0.0000   0.4350
   2.000   0.9323   0.01401   0.00866  -0.1653  0.7301  1.0000  -1.1645   0.0000   0.4230
   2.500   1.0024   0.01357   0.00808  -0.1680  0.7214  1.0000  -1.2411   0.0000   0.4127
   3.000   1.0595   0.01353   0.00802  -0.1686  0.7092  1.0000  -1.3087   0.0000   0.4035
   3.500   1.1176   0.01341   0.00786  -0.1692  0.6965  1.0000  -1.3780   0.0000   0.3950
   4.000   1.1747   0.01325   0.00767  -0.1695  0.6820  1.0000  -1.4495   0.0000   0.3871
   4.500   1.2295   0.01319   0.00757  -0.1694  0.6658  1.0000  -1.5304   0.0000   0.3799
   5.000   1.2839   0.01318   0.00751  -0.1691  0.6481  1.0000  -1.6121   0.0000   0.3731
   5.500   1.3302   0.01342   0.00776  -0.1675  0.6258  1.0000  -1.6875   0.0000   0.3665
   6.000   1.3757   0.01372   0.00798  -0.1656  0.5997  1.0000  -1.7790   0.0000   0.3602
   6.500   1.4168   0.01421   0.00837  -0.1631  0.5711  1.0000  -1.8712   0.0000   0.3541
   7.000   1.4516   0.01491   0.00898  -0.1595  0.5418  1.0000  -1.9621   0.0000   0.3481
   7.500   1.4798   0.01583   0.00979  -0.1548  0.5110  1.0000  -2.0550   0.0000   0.3420
   8.000   1.5031   0.01701   0.01088  -0.1496  0.4797  1.0000  -2.1484   0.0000   0.3361


