XFLR5 v6.06

 Calculated polar for: fab_f_d

 1 1 Reynolds number fixed          Mach number fixed         

 xtrf =   1.000 (top)        1.000 (bottom)
 Mach =   0.000     Re =     0.200 e 6     Ncrit =   9.000

  alpha     CL        CD       CDp       Cm    Top Xtr Bot Xtr   Cpmin    Chinge    XCp    
 ------- -------- --------- --------- -------- ------- ------- -------- --------- ---------
  -7.500  -0.0860   0.04921   0.04537  -0.1505  0.9115  0.0630  -2.6852   0.0000  -1.5619
  -7.000  -0.0661   0.04768   0.04373  -0.1504  0.9000  0.0787  -2.4447   0.0000  -2.0991
  -6.500  -0.0074   0.04669   0.04267  -0.1537  0.8964  0.1023  -2.0375   0.0000  -21.2642
  -6.000   0.0004   0.02397   0.01685  -0.1616  0.8829  0.0662  -2.8013   0.0000  400.2107
  -5.500   0.0364   0.02303   0.01560  -0.1587  0.8728  0.0720  -2.5155   0.0000   4.7291
  -5.000   0.1060   0.02146   0.01397  -0.1617  0.8694  0.0817  -2.1232   0.0000   1.8123
  -4.500   0.1475   0.02093   0.01338  -0.1596  0.8597  0.0920  -1.9138   0.0000   1.3562
  -4.000   0.2189   0.01968   0.01211  -0.1626  0.8554  0.1101  -1.6415   0.0000   1.0071
  -3.500   0.2631   0.01955   0.01198  -0.1609  0.8459  0.1296  -1.4408   0.0000   0.8720
  -3.000   0.3305   0.01867   0.01124  -0.1633  0.8413  0.1637  -1.1995   0.0000   0.7513
  -2.000   0.4476   0.01766   0.01065  -0.1650  0.8265  0.2880  -0.8138   0.0000   0.6219
  -1.500   0.4973   0.01744   0.01088  -0.1644  0.8167  0.4070  -0.7424   0.0000   0.5827
  -1.000   0.5594   0.01653   0.01078  -0.1651  0.8114  0.6518  -0.7852   0.0000   0.5461
  -0.500   0.5995   0.01674   0.01121  -0.1611  0.8004  0.7809  -0.8184   0.0000   0.5187
   0.000   0.6566   0.01619   0.01064  -0.1594  0.7950  0.8550  -0.8643   0.0000   0.4920
   0.500   0.6818   0.01625   0.01077  -0.1525  0.7827  0.9170  -0.8922   0.0000   0.4720
   1.000   0.7419   0.01598   0.01046  -0.1531  0.7719  1.0000  -0.9467   0.0000   0.4540
   1.500   0.8203   0.01539   0.00968  -0.1571  0.7657  1.0000  -1.0145   0.0000   0.4385
   2.000   0.8766   0.01551   0.00974  -0.1576  0.7534  1.0000  -1.0739   0.0000   0.4261
   2.500   0.9367   0.01532   0.00948  -0.1584  0.7408  1.0000  -1.1406   0.0000   0.4146
   3.000   0.9970   0.01512   0.00923  -0.1591  0.7283  1.0000  -1.2083   0.0000   0.4045
   3.500   1.0571   0.01489   0.00896  -0.1597  0.7152  1.0000  -1.2822   0.0000   0.3953
   4.000   1.1146   0.01461   0.00866  -0.1597  0.6993  1.0000  -1.3618   0.0000   0.3869
   4.500   1.1703   0.01444   0.00849  -0.1595  0.6820  1.0000  -1.4410   0.0000   0.3791
   5.000   1.2267   0.01431   0.00833  -0.1593  0.6633  1.0000  -1.5359   0.0000   0.3721
   5.500   1.2742   0.01440   0.00845  -0.1576  0.6381  1.0000  -1.6297   0.0000   0.3651
   6.000   1.3216   0.01461   0.00862  -0.1559  0.6098  1.0000  -1.7349   0.0000   0.3587
   6.500   1.3666   0.01501   0.00897  -0.1539  0.5791  1.0000  -1.8488   0.0000   0.3526
   7.000   1.4070   0.01563   0.00946  -0.1510  0.5438  1.0000  -1.9703   0.0000   0.3465
   7.500   1.4403   0.01649   0.01025  -0.1471  0.5079  1.0000  -2.1007   0.0000   0.3406
   8.000   1.4676   0.01753   0.01121  -0.1422  0.4728  1.0000  -2.2915   0.0000   0.3346


