XFLR5 v6.06

 Calculated polar for: fab_b_h

 1 1 Reynolds number fixed          Mach number fixed         

 xtrf =   1.000 (top)        1.000 (bottom)
 Mach =   0.000     Re =     0.450 e 6     Ncrit =   9.000

  alpha     CL        CD       CDp       Cm    Top Xtr Bot Xtr   Cpmin    Chinge    XCp    
 ------- -------- --------- --------- -------- ------- ------- -------- --------- ---------
  -8.000  -0.3004   0.01898   0.01378  -0.1389  0.9431  0.0154  -5.6987   0.0000  -0.2291
  -7.500  -0.2310   0.01652   0.01097  -0.1432  0.9403  0.0175  -5.1725   0.0000  -0.3897
  -7.000  -0.1713   0.01504   0.00929  -0.1449  0.9334  0.0212  -4.6352   0.0000  -0.6200
  -6.500  -0.1059   0.01348   0.00757  -0.1476  0.9279  0.0267  -4.1000   0.0000  -1.1795
  -6.000  -0.0445   0.01242   0.00645  -0.1493  0.9206  0.0342  -3.5462   0.0000  -3.1813
  -5.500   0.0186   0.01158   0.00554  -0.1512  0.9132  0.0442  -2.9937   0.0000   8.5435
  -5.000   0.0761   0.01088   0.00480  -0.1519  0.9041  0.0582  -2.4953   0.0000   2.2802
  -4.500   0.1393   0.01018   0.00409  -0.1537  0.8967  0.0805  -2.0373   0.0000   1.3704
  -4.000   0.1941   0.00969   0.00365  -0.1537  0.8858  0.1089  -1.6431   0.0000   1.0525
  -3.500   0.2503   0.00927   0.00331  -0.1540  0.8758  0.1529  -1.2666   0.0000   0.8722
  -3.000   0.3089   0.00886   0.00304  -0.1548  0.8668  0.2143  -1.0056   0.0000   0.7558
  -2.500   0.3650   0.00851   0.00284  -0.1550  0.8560  0.2891  -0.7833   0.0000   0.6779
  -2.000   0.4201   0.00820   0.00274  -0.1550  0.8451  0.3783  -0.6048   0.0000   0.6211
  -1.500   0.4760   0.00790   0.00269  -0.1552  0.8345  0.4857  -0.6387   0.0000   0.5771
  -1.000   0.5318   0.00761   0.00269  -0.1551  0.8232  0.6052  -0.6759   0.0000   0.5420
  -0.500   0.5857   0.00746   0.00274  -0.1545  0.8113  0.7031  -0.7146   0.0000   0.5134
   0.000   0.6374   0.00739   0.00281  -0.1532  0.7977  0.7793  -0.7555   0.0000   0.4895
   0.500   0.6882   0.00738   0.00287  -0.1518  0.7844  0.8325  -0.8015   0.0000   0.4691
   1.000   0.7355   0.00733   0.00289  -0.1495  0.7690  0.8848  -0.8497   0.0000   0.4512
   1.500   0.7789   0.00722   0.00284  -0.1463  0.7534  0.9447  -0.9002   0.0000   0.4352
   2.000   0.8404   0.00725   0.00280  -0.1475  0.7355  1.0000  -0.9668   0.0000   0.4224
   2.500   0.8944   0.00740   0.00290  -0.1473  0.7147  1.0000  -1.0354   0.0000   0.4109
   3.000   0.9481   0.00760   0.00301  -0.1468  0.6924  1.0000  -1.1136   0.0000   0.4006
   3.500   0.9995   0.00783   0.00319  -0.1459  0.6650  1.0000  -1.2057   0.0000   0.3912
   4.000   1.0493   0.00816   0.00341  -0.1448  0.6334  1.0000  -1.3087   0.0000   0.3826
   4.500   1.0971   0.00856   0.00372  -0.1432  0.5949  1.0000  -1.4274   0.0000   0.3745
   5.000   1.1428   0.00909   0.00412  -0.1412  0.5525  1.0000  -1.5679   0.0000   0.3670
   5.500   1.1855   0.00976   0.00461  -0.1388  0.5043  1.0000  -1.7444   0.0000   0.3599
   6.000   1.2260   0.01055   0.00522  -0.1361  0.4519  1.0000  -2.0244   0.0000   0.3532
   6.500   1.2637   0.01148   0.00594  -0.1329  0.3969  1.0000  -2.4252   0.0000   0.3467
   7.000   1.2976   0.01256   0.00678  -0.1292  0.3382  1.0000  -2.8319   0.0000   0.3404
   7.500   1.3285   0.01377   0.00775  -0.1250  0.2813  1.0000  -3.2448   0.0000   0.3343
   8.000   1.3577   0.01514   0.00888  -0.1208  0.2256  1.0000  -3.6729   0.0000   0.3285


