XFLR5 v6.06

 Calculated polar for: fab_f_d

 1 1 Reynolds number fixed          Mach number fixed         

 xtrf =   1.000 (top)        1.000 (bottom)
 Mach =   0.000     Re =     0.550 e 6     Ncrit =   9.000

  alpha     CL        CD       CDp       Cm    Top Xtr Bot Xtr   Cpmin    Chinge    XCp    
 ------- -------- --------- --------- -------- ------- ------- -------- --------- ---------
  -8.000  -0.1349   0.01486   0.00906  -0.1710  0.8453  0.0321  -4.5241   0.0000  -1.0654
  -7.500  -0.0810   0.01407   0.00812  -0.1713  0.8400  0.0354  -4.0432   0.0000  -1.9386
  -7.000  -0.0287   0.01331   0.00726  -0.1712  0.8343  0.0387  -3.5923   0.0000  -5.9026
  -6.500   0.0254   0.01263   0.00650  -0.1713  0.8284  0.0426  -3.1488   0.0000   7.1909
  -6.000   0.0812   0.01205   0.00583  -0.1717  0.8235  0.0473  -2.7194   0.0000   2.4194
  -5.500   0.1348   0.01150   0.00525  -0.1716  0.8180  0.0536  -2.3275   0.0000   1.5532
  -5.000   0.1911   0.01102   0.00471  -0.1719  0.8125  0.0622  -2.0415   0.0000   1.1691
  -4.500   0.2467   0.01060   0.00430  -0.1722  0.8067  0.0732  -1.7712   0.0000   0.9614
  -4.000   0.3022   0.01024   0.00396  -0.1723  0.8005  0.0872  -1.5206   0.0000   0.8298
  -3.500   0.3602   0.00993   0.00365  -0.1730  0.7952  0.1073  -1.2742   0.0000   0.7370
  -3.000   0.4147   0.00965   0.00348  -0.1729  0.7887  0.1392  -1.0641   0.0000   0.6719
  -2.500   0.4721   0.00935   0.00327  -0.1734  0.7823  0.1822  -0.8676   0.0000   0.6207
  -2.000   0.5277   0.00911   0.00318  -0.1736  0.7757  0.2344  -0.7687   0.0000   0.5811
  -1.500   0.5845   0.00881   0.00305  -0.1740  0.7685  0.3081  -0.8063   0.0000   0.5488
  -1.000   0.6405   0.00848   0.00303  -0.1743  0.7613  0.4183  -0.8448   0.0000   0.5224
  -0.500   0.6963   0.00802   0.00302  -0.1745  0.7530  0.5920  -0.8877   0.0000   0.5001
   0.000   0.7496   0.00786   0.00318  -0.1739  0.7446  0.7191  -0.9308   0.0000   0.4806
   0.500   0.8047   0.00786   0.00320  -0.1735  0.7361  0.7759  -0.9806   0.0000   0.4635
   1.000   0.8565   0.00785   0.00326  -0.1724  0.7252  0.8133  -1.0315   0.0000   0.4486
   1.500   0.9088   0.00787   0.00331  -0.1715  0.7143  0.8424  -1.0846   0.0000   0.4353
   2.000   0.9600   0.00786   0.00333  -0.1704  0.7018  0.8662  -1.1455   0.0000   0.4234
   2.500   1.0094   0.00787   0.00336  -0.1689  0.6875  0.8937  -1.2056   0.0000   0.4126
   3.000   1.0543   0.00785   0.00340  -0.1664  0.6712  0.9263  -1.2631   0.0000   0.4025
   3.500   1.1069   0.00785   0.00342  -0.1658  0.6526  1.0000  -1.3354   0.0000   0.3938
   4.000   1.1604   0.00812   0.00361  -0.1656  0.6306  1.0000  -1.4119   0.0000   0.3861
   4.500   1.2101   0.00847   0.00386  -0.1647  0.6017  1.0000  -1.4865   0.0000   0.3788
   5.000   1.2573   0.00893   0.00420  -0.1633  0.5722  1.0000  -1.5766   0.0000   0.3718
   5.500   1.3009   0.00949   0.00465  -0.1612  0.5372  1.0000  -1.6687   0.0000   0.3652
   6.000   1.3399   0.01021   0.00520  -0.1583  0.5012  1.0000  -1.7672   0.0000   0.3587
   6.500   1.3760   0.01094   0.00582  -0.1548  0.4675  1.0000  -1.8735   0.0000   0.3524
   7.000   1.4082   0.01179   0.00655  -0.1508  0.4331  1.0000  -1.9859   0.0000   0.3462
   7.500   1.4383   0.01275   0.00741  -0.1465  0.3994  1.0000  -2.1120   0.0000   0.3402
   8.000   1.4657   0.01390   0.00845  -0.1420  0.3674  1.0000  -2.3115   0.0000   0.3345


