XFLR5 v6.06

 Calculated polar for: fab_b_h

 1 1 Reynolds number fixed          Mach number fixed         

 xtrf =   1.000 (top)        1.000 (bottom)
 Mach =   0.000     Re =     0.200 e 6     Ncrit =   9.000

  alpha     CL        CD       CDp       Cm    Top Xtr Bot Xtr   Cpmin    Chinge    XCp    
 ------- -------- --------- --------- -------- ------- ------- -------- --------- ---------
  -8.000  -0.3311   0.09205   0.08891  -0.0514  0.9829  0.0554  -1.9827   0.0000   0.0839
  -7.500  -0.3168   0.08416   0.08105  -0.0594  0.9721  0.0600  -2.0146   0.0000   0.0518
  -7.000  -0.3020   0.07363   0.07054  -0.0731  0.9576  0.0643  -2.1658   0.0000  -0.0025
  -6.500  -0.2726   0.06005   0.05681  -0.0922  0.9439  0.0695  -2.3448   0.0000  -0.0989
  -6.000  -0.2253   0.02512   0.01849  -0.1177  0.9344  0.0378  -3.8980   0.0000  -0.2876
  -5.500  -0.1583   0.02254   0.01534  -0.1208  0.9282  0.0469  -3.5148   0.0000  -0.5328
  -5.000  -0.0815   0.02074   0.01339  -0.1254  0.9250  0.0603  -2.9985   0.0000  -1.3231
  -4.500  -0.0279   0.01952   0.01211  -0.1255  0.9150  0.0750  -2.5778   0.0000  -4.3380
  -4.000   0.0504   0.01815   0.01078  -0.1303  0.9116  0.1035  -2.0979   0.0000   2.8798
  -3.500   0.1075   0.01742   0.01011  -0.1310  0.9014  0.1407  -1.7174   0.0000   1.4867
  -3.000   0.1883   0.01627   0.00921  -0.1363  0.8981  0.2109  -1.2722   0.0000   0.9825
  -2.000   0.3274   0.01465   0.00835  -0.1424  0.8844  0.4455  -0.7508   0.0000   0.6881
  -1.500   0.3847   0.01413   0.00832  -0.1425  0.8740  0.5994  -0.5832   0.0000   0.6223
  -1.000   0.4539   0.01345   0.00797  -0.1440  0.8690  0.7419  -0.6274   0.0000   0.5681
  -0.500   0.4987   0.01326   0.00793  -0.1406  0.8567  0.8353  -0.6610   0.0000   0.5319
   0.000   0.5386   0.01291   0.00765  -0.1358  0.8442  0.9243  -0.6939   0.0000   0.5015
   0.500   0.6136   0.01256   0.00719  -0.1396  0.8342  1.0000  -0.7512   0.0000   0.4761
   1.000   0.6860   0.01225   0.00671  -0.1426  0.8238  1.0000  -0.8110   0.0000   0.4560
   1.500   0.7495   0.01214   0.00650  -0.1440  0.8106  1.0000  -0.8734   0.0000   0.4396
   2.000   0.8099   0.01206   0.00633  -0.1446  0.7950  1.0000  -0.9371   0.0000   0.4255
   2.500   0.8642   0.01210   0.00635  -0.1441  0.7767  1.0000  -1.0055   0.0000   0.4132
   3.000   0.9203   0.01206   0.00630  -0.1438  0.7572  1.0000  -1.0824   0.0000   0.4021
   3.500   0.9787   0.01199   0.00619  -0.1439  0.7372  1.0000  -1.1779   0.0000   0.3923
   4.000   1.0298   0.01207   0.00629  -0.1426  0.7119  1.0000  -1.2784   0.0000   0.3832
   4.500   1.0816   0.01216   0.00640  -0.1414  0.6837  1.0000  -1.3972   0.0000   0.3749
   5.000   1.1319   0.01234   0.00655  -0.1399  0.6505  1.0000  -1.5408   0.0000   0.3672
   5.500   1.1782   0.01270   0.00687  -0.1378  0.6107  1.0000  -1.7154   0.0000   0.3599
   6.000   1.2218   0.01323   0.00732  -0.1352  0.5658  1.0000  -1.9704   0.0000   0.3529
   6.500   1.2610   0.01399   0.00795  -0.1320  0.5148  1.0000  -2.3636   0.0000   0.3463
   7.000   1.2952   0.01497   0.00877  -0.1280  0.4589  1.0000  -2.7655   0.0000   0.3397
   7.500   1.3243   0.01615   0.00979  -0.1232  0.4007  1.0000  -3.1629   0.0000   0.3333
   8.000   1.3460   0.01756   0.01100  -0.1174  0.3420  1.0000  -3.5405   0.0000   0.3268


