XFLR5 v6.06

 Calculated polar for: fab_b_h

 1 1 Reynolds number fixed          Mach number fixed         

 xtrf =   1.000 (top)        1.000 (bottom)
 Mach =   0.000     Re =     0.600 e 6     Ncrit =   9.000

  alpha     CL        CD       CDp       Cm    Top Xtr Bot Xtr   Cpmin    Chinge    XCp    
 ------- -------- --------- --------- -------- ------- ------- -------- --------- ---------
  -8.000  -0.2656   0.01518   0.01008  -0.1464  0.9413  0.0135  -5.7705   0.0000  -0.3202
  -7.500  -0.2048   0.01357   0.00826  -0.1485  0.9341  0.0154  -5.2129   0.0000  -0.4974
  -7.000  -0.1416   0.01244   0.00693  -0.1507  0.9268  0.0193  -4.6255   0.0000  -0.8438
  -6.500  -0.0841   0.01139   0.00578  -0.1517  0.9170  0.0247  -4.0753   0.0000  -1.5982
  -6.000  -0.0242   0.01059   0.00490  -0.1530  0.9080  0.0312  -3.5080   0.0000  -6.2047
  -5.500   0.0337   0.00999   0.00423  -0.1537  0.8985  0.0403  -2.9664   0.0000   4.8999
  -5.000   0.0891   0.00949   0.00370  -0.1539  0.8882  0.0543  -2.4654   0.0000   2.0071
  -4.500   0.1458   0.00900   0.00320  -0.1543  0.8783  0.0742  -2.0257   0.0000   1.3242
  -4.000   0.2035   0.00860   0.00281  -0.1548  0.8686  0.1004  -1.6178   0.0000   1.0210
  -3.500   0.2578   0.00824   0.00254  -0.1547  0.8581  0.1401  -1.2466   0.0000   0.8569
  -3.000   0.3136   0.00791   0.00234  -0.1549  0.8478  0.1937  -0.9985   0.0000   0.7486
  -2.500   0.3702   0.00762   0.00217  -0.1552  0.8378  0.2596  -0.7746   0.0000   0.6724
  -2.000   0.4254   0.00734   0.00206  -0.1553  0.8272  0.3373  -0.6086   0.0000   0.6169
  -1.500   0.4804   0.00707   0.00201  -0.1552  0.8155  0.4299  -0.6421   0.0000   0.5742
  -1.000   0.5357   0.00682   0.00201  -0.1552  0.8045  0.5408  -0.6789   0.0000   0.5401
  -0.500   0.5903   0.00664   0.00205  -0.1549  0.7918  0.6441  -0.7179   0.0000   0.5121
   0.000   0.6442   0.00655   0.00213  -0.1544  0.7795  0.7313  -0.7602   0.0000   0.4886
   0.500   0.6968   0.00653   0.00220  -0.1534  0.7650  0.7922  -0.8072   0.0000   0.4686
   1.000   0.7479   0.00653   0.00227  -0.1521  0.7496  0.8400  -0.8583   0.0000   0.4513
   1.500   0.7961   0.00653   0.00235  -0.1502  0.7326  0.8874  -0.9118   0.0000   0.4360
   2.000   0.8391   0.00647   0.00236  -0.1470  0.7125  0.9480  -0.9669   0.0000   0.4220
   3.000   0.9505   0.00681   0.00254  -0.1472  0.6651  1.0000  -1.1167   0.0000   0.4005
   3.500   1.0022   0.00710   0.00274  -0.1464  0.6365  1.0000  -1.2096   0.0000   0.3912
   4.000   1.0513   0.00748   0.00299  -0.1451  0.5993  1.0000  -1.3123   0.0000   0.3826
   4.500   1.0985   0.00796   0.00333  -0.1435  0.5580  1.0000  -1.4309   0.0000   0.3747
   5.000   1.1441   0.00854   0.00375  -0.1416  0.5125  1.0000  -1.5717   0.0000   0.3672
   5.500   1.1877   0.00923   0.00425  -0.1395  0.4626  1.0000  -1.7515   0.0000   0.3602
   6.000   1.2290   0.01005   0.00485  -0.1370  0.4082  1.0000  -2.0467   0.0000   0.3536
   6.500   1.2682   0.01099   0.00556  -0.1342  0.3525  1.0000  -2.4559   0.0000   0.3473
   7.000   1.3040   0.01205   0.00637  -0.1308  0.2941  1.0000  -2.8740   0.0000   0.3412
   7.500   1.3369   0.01322   0.00729  -0.1270  0.2384  1.0000  -3.2999   0.0000   0.3352
   8.000   1.3675   0.01454   0.00835  -0.1230  0.1852  1.0000  -3.7446   0.0000   0.3294


