XFLR5 v6.06

 Calculated polar for: fab_h_b

 1 1 Reynolds number fixed          Mach number fixed         

 xtrf =   1.000 (top)        1.000 (bottom)
 Mach =   0.000     Re =     0.050 e 6     Ncrit =   9.000

  alpha     CL        CD       CDp       Cm    Top Xtr Bot Xtr   Cpmin    Chinge    XCp    
 ------- -------- --------- --------- -------- ------- ------- -------- --------- ---------
  -8.000  -0.3806   0.13500   0.12926  -0.0159  1.0000  0.2017  -1.5372   0.0000   0.1945
  -7.500  -0.4024   0.13179   0.12618  -0.0139  1.0000  0.2099  -1.5804   0.0000   0.2032
  -7.000  -0.4286   0.12941   0.12393  -0.0112  1.0000  0.2206  -1.6207   0.0000   0.2134
  -6.500  -0.4354   0.12467   0.11928  -0.0077  1.0000  0.2333  -1.5974   0.0000   0.2225
  -6.000  -0.4446   0.12004   0.11473  -0.0040  1.0000  0.2453  -1.5771   0.0000   0.2321
  -5.500  -0.4603   0.11573   0.11052  -0.0001  1.0000  0.2567  -1.5725   0.0000   0.2417
  -5.000  -0.4761   0.11131   0.10621   0.0018  1.0000  0.2727  -1.5792   0.0000   0.2466
  -4.500  -0.4891   0.10616   0.10116   0.0011  1.0000  0.2918  -1.5978   0.0000   0.2458
  -4.000  -0.4849   0.10093   0.09597   0.0038  1.0000  0.3157  -1.5475   0.0000   0.2520
  -3.500  -0.4827   0.09541   0.09049   0.0014  1.0000  0.3491  -1.5289   0.0000   0.2474
  -3.000  -0.4735   0.09064   0.08573   0.0032  1.0000  0.3926  -1.4635   0.0000   0.2516
  -2.500  -0.4659   0.08588   0.08105   0.0113  1.0000  0.4302  -1.3864   0.0000   0.2694
  -2.000  -0.4630   0.08213   0.07739   0.0193  1.0000  0.4998  -1.3225   0.0000   0.2872
  -1.500  -0.1295   0.05145   0.04261  -0.0861  1.0000  0.2041  -1.6231   0.0000  -0.4311
  -1.000  -0.0718   0.05031   0.04090  -0.0898  1.0000  0.2245  -1.4999   0.0000  -1.0251
  -0.500  -0.0207   0.05020   0.04046  -0.0919  1.0000  0.2530  -1.3741   0.0000  -4.2724
   0.000   0.0284   0.05076   0.04087  -0.0935  1.0000  0.2938  -1.2471   0.0000   3.5892
   0.500   0.0772   0.05187   0.04203  -0.0950  1.0000  0.3616  -1.1137   0.0000   1.4916
   1.000   0.1316   0.05308   0.04426  -0.0968  1.0000  0.5366  -0.9761   0.0000   0.9894
   1.500   0.1436   0.05287   0.04491  -0.0895  0.9965  1.0000  -0.9027   0.0000   0.8745
   2.000   0.2191   0.05812   0.04934  -0.0975  0.9760  1.0000  -0.7176   0.0000   0.6935
   2.500   0.2843   0.06273   0.05347  -0.1036  0.9496  1.0000  -0.5950   0.0000   0.6112
   3.000   0.3433   0.06716   0.05755  -0.1083  0.9227  1.0000  -0.6349   0.0000   0.5613
   3.500   0.3978   0.07147   0.06162  -0.1121  0.8949  1.0000  -0.6746   0.0000   0.5267
   4.000   0.4479   0.07562   0.06560  -0.1150  0.8663  1.0000  -0.7120   0.0000   0.5008
   4.500   0.4945   0.07969   0.06955  -0.1172  0.8371  1.0000  -0.7458   0.0000   0.4804
   5.000   0.5425   0.08397   0.07374  -0.1195  0.8083  1.0000  -0.7814   0.0000   0.4629
   5.500   0.5863   0.08805   0.07777  -0.1210  0.7789  1.0000  -0.8218   0.0000   0.4485
   6.000   0.6844   0.08589   0.07544  -0.1216  0.6856  1.0000  -0.9380   0.0000   0.4188
   6.500   0.7316   0.08876   0.07833  -0.1222  0.6580  1.0000  -0.9898   0.0000   0.4074
   7.000   0.7921   0.09117   0.08076  -0.1235  0.6328  1.0000  -1.0603   0.0000   0.3955
   7.500   0.8001   0.09616   0.08587  -0.1223  0.6101  1.0000  -1.0713   0.0000   0.3917
   8.000   0.8627   0.09861   0.08841  -0.1235  0.5881  1.0000  -1.1587   0.0000   0.3813


