XFLR5 v6.06

 Calculated polar for: fab_b_h

 1 1 Reynolds number fixed          Mach number fixed         

 xtrf =   1.000 (top)        1.000 (bottom)
 Mach =   0.000     Re =     0.500 e 6     Ncrit =   9.000

  alpha     CL        CD       CDp       Cm    Top Xtr Bot Xtr   Cpmin    Chinge    XCp    
 ------- -------- --------- --------- -------- ------- ------- -------- --------- ---------
  -8.000  -0.2851   0.01738   0.01207  -0.1420  0.9429  0.0147  -5.7590   0.0000  -0.2659
  -7.500  -0.2165   0.01533   0.00979  -0.1460  0.9397  0.0169  -5.1825   0.0000  -0.4455
  -7.000  -0.1597   0.01392   0.00830  -0.1472  0.9313  0.0204  -4.6306   0.0000  -0.6977
  -6.500  -0.0929   0.01255   0.00678  -0.1502  0.9259  0.0261  -4.0673   0.0000  -1.4072
  -6.000  -0.0358   0.01166   0.00578  -0.1509  0.9163  0.0332  -3.5307   0.0000  -4.0634
  -5.500   0.0258   0.01094   0.00499  -0.1524  0.9085  0.0430  -2.9788   0.0000   6.2804
  -5.000   0.0839   0.01027   0.00430  -0.1532  0.8992  0.0570  -2.4719   0.0000   2.1079
  -4.500   0.1401   0.00971   0.00375  -0.1535  0.8892  0.0778  -2.0391   0.0000   1.3627
  -4.000   0.1981   0.00926   0.00330  -0.1541  0.8796  0.1060  -1.6321   0.0000   1.0385
  -3.500   0.2552   0.00883   0.00297  -0.1546  0.8699  0.1491  -1.2523   0.0000   0.8628
  -3.000   0.3103   0.00848   0.00275  -0.1547  0.8593  0.2064  -1.0037   0.0000   0.7532
  -2.500   0.3666   0.00816   0.00258  -0.1550  0.8489  0.2775  -0.7807   0.0000   0.6759
  -2.000   0.4243   0.00786   0.00244  -0.1555  0.8393  0.3647  -0.6074   0.0000   0.6186
  -1.500   0.4784   0.00755   0.00239  -0.1553  0.8275  0.4648  -0.6404   0.0000   0.5757
  -1.000   0.5330   0.00728   0.00242  -0.1551  0.8158  0.5815  -0.6769   0.0000   0.5413
  -0.500   0.5871   0.00712   0.00247  -0.1546  0.8037  0.6822  -0.7157   0.0000   0.5130
   0.000   0.6401   0.00705   0.00254  -0.1537  0.7907  0.7630  -0.7574   0.0000   0.4891
   0.500   0.6922   0.00704   0.00260  -0.1526  0.7775  0.8179  -0.8041   0.0000   0.4689
   1.000   0.7410   0.00701   0.00265  -0.1507  0.7617  0.8676  -0.8535   0.0000   0.4512
   2.000   0.8408   0.00690   0.00261  -0.1475  0.7265  1.0000  -0.9675   0.0000   0.4222
   2.500   0.8961   0.00708   0.00268  -0.1475  0.7071  1.0000  -1.0371   0.0000   0.4109
   3.000   0.9489   0.00727   0.00282  -0.1469  0.6822  1.0000  -1.1147   0.0000   0.4006
   3.500   1.0007   0.00753   0.00301  -0.1461  0.6551  1.0000  -1.2073   0.0000   0.3912
   4.000   1.0500   0.00788   0.00324  -0.1449  0.6210  1.0000  -1.3101   0.0000   0.3826
   4.500   1.0977   0.00831   0.00356  -0.1433  0.5817  1.0000  -1.4289   0.0000   0.3746
   5.000   1.1433   0.00886   0.00396  -0.1414  0.5383  1.0000  -1.5695   0.0000   0.3671
   5.500   1.1861   0.00955   0.00447  -0.1390  0.4893  1.0000  -1.7467   0.0000   0.3600
   6.000   1.2269   0.01035   0.00507  -0.1363  0.4359  1.0000  -2.0318   0.0000   0.3533
   6.500   1.2652   0.01128   0.00579  -0.1333  0.3811  1.0000  -2.4359   0.0000   0.3469
   7.000   1.2997   0.01236   0.00662  -0.1297  0.3217  1.0000  -2.8463   0.0000   0.3407
   7.500   1.3315   0.01355   0.00757  -0.1257  0.2653  1.0000  -3.2648   0.0000   0.3346
   8.000   1.3614   0.01489   0.00867  -0.1216  0.2111  1.0000  -3.7003   0.0000   0.3288


