XFLR5 v6.06

 Calculated polar for: foila

 1 1 Reynolds number fixed          Mach number fixed         

 xtrf =   1.000 (top)        1.000 (bottom)
 Mach =   0.000     Re =     0.150 e 6     Ncrit =   9.000

  alpha     CL        CD       CDp       Cm    Top Xtr Bot Xtr   Cpmin    Chinge    XCp    
 ------- -------- --------- --------- -------- ------- ------- -------- --------- ---------
  -8.000   0.1231   0.08026   0.07578  -0.1461  0.8965  0.1072  -1.2828   0.0000   1.5009
  -7.500   0.0498   0.08096   0.07667  -0.1367  0.8804  0.1104  -1.4595   0.0000   3.1381
  -7.000  -0.0071   0.08077   0.07663  -0.1261  0.8668  0.1112  -1.5485   0.0000  -18.3268
  -6.500  -0.0545   0.08140   0.07739  -0.1125  0.8534  0.1119  -1.5580   0.0000  -1.9212
  -6.000  -0.0787   0.08003   0.07609  -0.1044  0.8399  0.1141  -1.5390   0.0000  -1.1448
  -5.500  -0.1139   0.07417   0.07019  -0.1081  0.8263  0.1202  -1.7004   0.0000  -0.7409
  -5.000  -0.1108   0.07159   0.06761  -0.1041  0.8153  0.1253  -1.6277   0.0000  -0.7291
  -4.500  -0.0514   0.06231   0.05796  -0.1179  0.8102  0.1405  -1.6137   0.0000  -2.1223
  -4.000   0.0934   0.03710   0.02943  -0.1492  0.8097  0.0910  -2.0899   0.0000   1.8945
  -3.500   0.1312   0.03670   0.02878  -0.1475  0.7980  0.0987  -1.9281   0.0000   1.4048
  -3.000   0.2184   0.03507   0.02694  -0.1524  0.7945  0.1143  -1.6714   0.0000   0.9637
  -2.500   0.2522   0.03548   0.02724  -0.1499  0.7820  0.1276  -1.5250   0.0000   0.8561
  -2.000   0.2949   0.03568   0.02751  -0.1487  0.7707  0.1449  -1.3544   0.0000   0.7625
  -1.500   0.3703   0.03485   0.02678  -0.1518  0.7662  0.1772  -1.1367   0.0000   0.6649
  -0.500   0.5021   0.03354   0.02598  -0.1553  0.7505  0.3050  -0.8334   0.0000   0.5605
   0.500   0.5630   0.03396   0.02814  -0.1467  0.7245  0.8151  -0.8873   0.0000   0.5092
   1.000   0.6124   0.03248   0.02670  -0.1418  0.7209  0.9386  -0.9336   0.0000   0.4792
   1.500   0.6652   0.03287   0.02690  -0.1423  0.7075  1.0000  -0.9834   0.0000   0.4604
   2.000   0.7562   0.03137   0.02516  -0.1467  0.7054  1.0000  -1.0655   0.0000   0.4395
   4.000   0.9926   0.02998   0.02339  -0.1484  0.6645  1.0000  -1.3256   0.0000   0.3917
   4.500   1.0851   0.02744   0.02080  -0.1524  0.6631  1.0000  -1.4280   0.0000   0.3818
   5.500   1.2484   0.02383   0.01714  -0.1585  0.6474  1.0000  -1.6296   0.0000   0.3668
   6.000   1.3103   0.02298   0.01629  -0.1589  0.6331  1.0000  -1.7215   0.0000   0.3603
   6.500   1.3769   0.02216   0.01545  -0.1602  0.6175  1.0000  -1.8189   0.0000   0.3546
   7.000   1.4054   0.02276   0.01609  -0.1558  0.5947  1.0000  -1.8837   0.0000   0.3482
   7.500   1.4712   0.02219   0.01543  -0.1570  0.5740  1.0000  -2.0034   0.0000   0.3433
   8.000   1.5058   0.02284   0.01605  -0.1537  0.5473  1.0000  -2.0921   0.0000   0.3377


