XFLR5 v6.06

 Calculated polar for: foila

 1 1 Reynolds number fixed          Mach number fixed         

 xtrf =   1.000 (top)        1.000 (bottom)
 Mach =   0.000     Re =     0.600 e 6     Ncrit =   9.000

  alpha     CL        CD       CDp       Cm    Top Xtr Bot Xtr   Cpmin    Chinge    XCp    
 ------- -------- --------- --------- -------- ------- ------- -------- --------- ---------
  -8.000  -0.0393   0.01564   0.00958  -0.1867  0.7921  0.0360  -3.9213   0.0000  -4.7166
  -7.500   0.0127   0.01482   0.00878  -0.1867  0.7880  0.0381  -3.5859   0.0000  15.5924
  -7.000   0.0670   0.01402   0.00788  -0.1869  0.7843  0.0404  -3.2736   0.0000   3.1467
  -6.500   0.1236   0.01345   0.00717  -0.1875  0.7810  0.0435  -2.9712   0.0000   1.8207
  -6.000   0.1786   0.01296   0.00664  -0.1877  0.7775  0.0470  -2.6794   0.0000   1.3351
  -5.500   0.2330   0.01239   0.00609  -0.1878  0.7733  0.0517  -2.3969   0.0000   1.0798
  -5.000   0.2897   0.01190   0.00559  -0.1883  0.7693  0.0578  -2.1232   0.0000   0.9172
  -4.500   0.3482   0.01151   0.00514  -0.1890  0.7657  0.0657  -1.8717   0.0000   0.8057
  -4.000   0.4033   0.01119   0.00486  -0.1891  0.7611  0.0745  -1.6401   0.0000   0.7286
  -3.500   0.4598   0.01087   0.00458  -0.1894  0.7563  0.0855  -1.4127   0.0000   0.6693
  -3.000   0.5185   0.01058   0.00430  -0.1902  0.7525  0.1020  -1.1982   0.0000   0.6221
  -2.500   0.5753   0.01034   0.00414  -0.1906  0.7473  0.1286  -0.9988   0.0000   0.5850
  -2.000   0.6314   0.01005   0.00396  -0.1908  0.7414  0.1598  -0.9359   0.0000   0.5545
  -1.500   0.6903   0.00982   0.00380  -0.1916  0.7369  0.1990  -0.9780   0.0000   0.5287
  -1.000   0.7460   0.00960   0.00373  -0.1918  0.7307  0.2516  -1.0186   0.0000   0.5072
  -0.500   0.8031   0.00922   0.00361  -0.1923  0.7241  0.3421  -1.0631   0.0000   0.4886
   0.000   0.8602   0.00868   0.00360  -0.1930  0.7179  0.5528  -1.1117   0.0000   0.4727
   0.500   0.9134   0.00842   0.00379  -0.1924  0.7105  0.7286  -1.1587   0.0000   0.4581
   1.000   0.9685   0.00846   0.00383  -0.1922  0.7034  0.7724  -1.2146   0.0000   0.4450
   1.500   1.0218   0.00848   0.00386  -0.1915  0.6941  0.8000  -1.2709   0.0000   0.4333
   2.000   1.0736   0.00853   0.00394  -0.1906  0.6839  0.8226  -1.3266   0.0000   0.4226
   2.500   1.1254   0.00858   0.00398  -0.1898  0.6720  0.8411  -1.3899   0.0000   0.4129
   3.000   1.1767   0.00866   0.00405  -0.1889  0.6592  0.8567  -1.4568   0.0000   0.4040
   3.500   1.2253   0.00877   0.00416  -0.1875  0.6445  0.8721  -1.5221   0.0000   0.3958
   4.000   1.2720   0.00893   0.00434  -0.1858  0.6267  0.8889  -1.5865   0.0000   0.3880
   5.000   1.3535   0.00944   0.00481  -0.1801  0.5807  0.9318  -1.7174   0.0000   0.3735
   5.500   1.3926   0.00988   0.00518  -0.1773  0.5545  1.0000  -1.7889   0.0000   0.3669
   6.000   1.4262   0.01061   0.00578  -0.1736  0.5249  1.0000  -1.8558   0.0000   0.3605
   6.500   1.4549   0.01154   0.00657  -0.1692  0.4982  1.0000  -1.9184   0.0000   0.3543
   7.000   1.4836   0.01252   0.00749  -0.1650  0.4723  1.0000  -1.9917   0.0000   0.3484
   7.500   1.5060   0.01385   0.00872  -0.1602  0.4458  1.0000  -2.0653   0.0000   0.3427


