XFLR5 v6.06

 Calculated polar for: foila

 1 1 Reynolds number fixed          Mach number fixed         

 xtrf =   1.000 (top)        1.000 (bottom)
 Mach =   0.000     Re =     0.050 e 6     Ncrit =   9.000

  alpha     CL        CD       CDp       Cm    Top Xtr Bot Xtr   Cpmin    Chinge    XCp    
 ------- -------- --------- --------- -------- ------- ------- -------- --------- ---------
  -8.000  -0.3653   0.15145   0.14620  -0.0147  1.0000  0.1946  -1.3851   0.0000   0.1971
  -7.500  -0.3513   0.14514   0.13992  -0.0120  1.0000  0.2051  -1.3134   0.0000   0.2033
  -7.000  -0.3557   0.14042   0.13527  -0.0099  1.0000  0.2140  -1.2993   0.0000   0.2105
  -6.500  -0.3720   0.13634   0.13129  -0.0080  1.0000  0.2238  -1.3183   0.0000   0.2181
  -6.000  -0.4121   0.13402   0.12909  -0.0055  1.0000  0.2336  -1.3956   0.0000   0.2278
  -5.500  -0.4150   0.12892   0.12407  -0.0024  1.0000  0.2464  -1.3631   0.0000   0.2360
  -5.000  -0.4217   0.12398   0.11920   0.0010  1.0000  0.2581  -1.3459   0.0000   0.2448
  -4.500  -0.4398   0.11950   0.11482   0.0045  1.0000  0.2711  -1.3537   0.0000   0.2535
  -4.000  -0.4636   0.11473   0.11014   0.0042  1.0000  0.2889  -1.3938   0.0000   0.2532
  -3.500  -0.4615   0.10912   0.10460   0.0071  1.0000  0.3079  -1.3529   0.0000   0.2599
  -3.000  -0.4645   0.10360   0.09913   0.0063  1.0000  0.3349  -1.3501   0.0000   0.2583
  -2.500  -0.4587   0.09864   0.09423   0.0092  1.0000  0.3663  -1.3048   0.0000   0.2653
  -2.000  -0.4586   0.08967   0.08490   0.0066  1.0000  0.4362  -1.3691   0.0000   0.2589
  -1.500  -0.1822   0.06065   0.05284  -0.0818  1.0000  0.1928  -1.6914   0.0000  -0.2129
  -1.000  -0.1184   0.05825   0.04978  -0.0882  1.0000  0.2019  -1.5986   0.0000  -0.5137
  -0.500  -0.0571   0.05742   0.04821  -0.0932  1.0000  0.2187  -1.4977   0.0000  -1.4175
   0.000   0.0001   0.05798   0.04843  -0.0969  0.9978  0.2432  -1.3768   0.0000  1180.1515
   0.500   0.0734   0.06012   0.05031  -0.1029  0.9869  0.2850  -1.2202   0.0000   1.6694
   1.000   0.1440   0.06271   0.05292  -0.1083  0.9715  0.3570  -1.0642   0.0000   1.0072
   1.500   0.2115   0.06468   0.05621  -0.1125  0.9561  0.5725  -0.9137   0.0000   0.7833
   2.000   0.2381   0.06560   0.05746  -0.1075  0.9298  1.0000  -0.8183   0.0000   0.7010
   2.500   0.2945   0.06989   0.06113  -0.1115  0.9066  1.0000  -0.6633   0.0000   0.6262
   3.000   0.3520   0.07438   0.06518  -0.1155  0.8827  1.0000  -0.6628   0.0000   0.5745
   3.500   0.3898   0.07781   0.06836  -0.1166  0.8581  1.0000  -0.6891   0.0000   0.5444
   4.000   0.4430   0.08280   0.07309  -0.1200  0.8371  1.0000  -0.7299   0.0000   0.5151
   4.500   0.4816   0.08649   0.07663  -0.1211  0.8113  1.0000  -0.7581   0.0000   0.4949
   5.000   0.5174   0.09097   0.08100  -0.1223  0.7916  1.0000  -0.7816   0.0000   0.4790
   5.500   0.5516   0.09510   0.08506  -0.1233  0.7689  1.0000  -0.8034   0.0000   0.4652
   6.000   0.6031   0.10075   0.09062  -0.1263  0.7497  1.0000  -0.8485   0.0000   0.4504
   6.500   0.6157   0.10457   0.09447  -0.1254  0.7303  1.0000  -0.8573   0.0000   0.4439
   7.000   0.6564   0.10940   0.09929  -0.1271  0.7077  1.0000  -0.8942   0.0000   0.4331
   8.000   0.7681   0.11392   0.10376  -0.1280  0.6183  1.0000  -1.0217   0.0000   0.4043


