XFLR5 v6.06

 Calculated polar for: foila

 1 1 Reynolds number fixed          Mach number fixed         

 xtrf =   1.000 (top)        1.000 (bottom)
 Mach =   0.000     Re =     0.100 e 6     Ncrit =   9.000

  alpha     CL        CD       CDp       Cm    Top Xtr Bot Xtr   Cpmin    Chinge    XCp    
 ------- -------- --------- --------- -------- ------- ------- -------- --------- ---------
  -8.000  -0.3559   0.14238   0.13870  -0.0178  0.9987  0.1042  -1.4893   0.0000   0.1863
  -7.500  -0.3642   0.13696   0.13330  -0.0239  0.9924  0.1106  -1.5825   0.0000   0.1716
  -7.000  -0.4482   0.12937   0.12560  -0.0165  0.9991  0.1105  -1.8221   0.0000   0.2009
  -6.500  -0.4168   0.12332   0.11953  -0.0194  0.9922  0.1165  -1.7074   0.0000   0.1908
  -5.500  -0.4268   0.11061   0.10687  -0.0346  0.9667  0.1289  -1.8519   0.0000   0.1579
  -5.000  -0.3994   0.10310   0.09930  -0.0438  0.9525  0.1388  -1.8091   0.0000   0.1294
  -4.000  -0.3261   0.08935   0.08536  -0.0590  0.9245  0.1619  -1.6692   0.0000   0.0573
  -3.500  -0.2638   0.08147   0.07718  -0.0740  0.9102  0.1839  -1.6164   0.0000  -0.0441
  -3.000  -0.2030   0.07580   0.07126  -0.0835  0.8962  0.2089  -1.5273   0.0000  -0.1776
  -2.500   0.0728   0.04828   0.03972  -0.1317  0.8314  0.1287  -1.7662   0.0000   2.1051
  -2.000   0.1351   0.04779   0.03909  -0.1339  0.8181  0.1447  -1.5770   0.0000   1.2621
  -1.500   0.1977   0.04746   0.03861  -0.1357  0.8034  0.1662  -1.3971   0.0000   0.9483
  -0.500   0.3194   0.04717   0.03844  -0.1384  0.7739  0.2398  -1.0429   0.0000   0.6873
   0.000   0.4005   0.04660   0.03829  -0.1421  0.7649  0.3339  -0.8391   0.0000   0.6063
   0.500   0.4410   0.04623   0.03956  -0.1399  0.7511  0.6808  -0.7742   0.0000   0.5672
   1.000   0.4533   0.04607   0.03969  -0.1301  0.7363  1.0000  -0.7915   0.0000   0.5358
   1.500   0.5123   0.04706   0.04027  -0.1316  0.7217  1.0000  -0.8415   0.0000   0.5044
   2.000   0.5723   0.04777   0.04066  -0.1329  0.7070  1.0000  -0.8941   0.0000   0.4785
   2.500   0.6259   0.04877   0.04144  -0.1335  0.6926  1.0000  -0.9416   0.0000   0.4585
   3.000   0.6766   0.04988   0.04239  -0.1337  0.6783  1.0000  -0.9877   0.0000   0.4420
   3.500   0.7290   0.05074   0.04312  -0.1339  0.6638  1.0000  -1.0451   0.0000   0.4271
   4.000   0.7848   0.05108   0.04335  -0.1341  0.6492  1.0000  -1.1082   0.0000   0.4133
   4.500   0.8397   0.05134   0.04353  -0.1340  0.6347  1.0000  -1.1714   0.0000   0.4012
   6.000   0.9908   0.05276   0.04492  -0.1325  0.5915  1.0000  -1.3615   0.0000   0.3727
   6.500   1.0773   0.04944   0.04161  -0.1337  0.5862  1.0000  -1.4794   0.0000   0.3623
   7.500   1.1923   0.04732   0.03962  -0.1321  0.5609  1.0000  -1.6536   0.0000   0.3473
   8.000   1.3038   0.04145   0.03382  -0.1351  0.5591  1.0000  -1.8251   0.0000   0.3393


