XFLR5 v6.06

 Calculated polar for: foila

 1 1 Reynolds number fixed          Mach number fixed         

 xtrf =   1.000 (top)        1.000 (bottom)
 Mach =   0.000     Re =     0.200 e 6     Ncrit =   9.000

  alpha     CL        CD       CDp       Cm    Top Xtr Bot Xtr   Cpmin    Chinge    XCp    
 ------- -------- --------- --------- -------- ------- ------- -------- --------- ---------
  -8.000   0.1558   0.07086   0.06671  -0.1569  0.8718  0.0903  -1.3716   0.0000   1.3083
  -7.500   0.0078   0.04566   0.04106  -0.1742  0.8533  0.0651  -2.6152   0.0000  23.4261
  -7.000   0.0219   0.04802   0.04365  -0.1668  0.8435  0.0709  -2.3349   0.0000   8.1795
  -6.500   0.0700   0.04846   0.04412  -0.1667  0.8398  0.0833  -2.0109   0.0000   2.7193
  -6.000   0.0639   0.04855   0.04423  -0.1596  0.8281  0.0909  -1.9128   0.0000   2.8354
  -5.500   0.0801   0.02987   0.02285  -0.1674  0.8178  0.0695  -2.5141   0.0000   2.4130
  -5.000   0.1432   0.02797   0.02057  -0.1693  0.8125  0.0753  -2.2892   0.0000   1.4701
  -4.500   0.2140   0.02643   0.01886  -0.1722  0.8102  0.0837  -2.0265   0.0000   1.0774
  -4.000   0.2351   0.02696   0.01935  -0.1673  0.7985  0.0905  -1.8836   0.0000   0.9801
  -3.500   0.3076   0.02580   0.01813  -0.1702  0.7960  0.1045  -1.6426   0.0000   0.8157
  -3.000   0.3824   0.02481   0.01716  -0.1734  0.7939  0.1226  -1.4005   0.0000   0.7121
  -2.000   0.4858   0.02427   0.01678  -0.1726  0.7786  0.1737  -1.0362   0.0000   0.6096
   0.000   0.6747   0.02339   0.01787  -0.1674  0.7423  0.7481  -0.9704   0.0000   0.4973
   0.500   0.7291   0.02282   0.01733  -0.1651  0.7381  0.8366  -1.0183   0.0000   0.4746
   1.000   0.7890   0.02146   0.01591  -0.1633  0.7355  0.8961  -1.0741   0.0000   0.4542
   2.000   0.9068   0.02013   0.01444  -0.1632  0.7208  1.0000  -1.1924   0.0000   0.4255
   2.500   0.9574   0.02035   0.01461  -0.1630  0.7087  1.0000  -1.2448   0.0000   0.4149
   3.000   1.0474   0.01888   0.01297  -0.1684  0.7053  1.0000  -1.3394   0.0000   0.4046
   3.500   1.1007   0.01876   0.01283  -0.1682  0.6931  1.0000  -1.4064   0.0000   0.3958
   4.000   1.1559   0.01855   0.01259  -0.1682  0.6811  1.0000  -1.4759   0.0000   0.3877
   4.500   1.2166   0.01803   0.01204  -0.1689  0.6690  1.0000  -1.5510   0.0000   0.3803
   5.000   1.2756   0.01755   0.01152  -0.1693  0.6552  1.0000  -1.6310   0.0000   0.3733
   5.500   1.3303   0.01729   0.01123  -0.1690  0.6393  1.0000  -1.7158   0.0000   0.3669
   6.000   1.3823   0.01719   0.01108  -0.1683  0.6210  1.0000  -1.7990   0.0000   0.3607
   6.500   1.4295   0.01729   0.01113  -0.1668  0.6002  1.0000  -1.8784   0.0000   0.3548
   7.000   1.4670   0.01772   0.01150  -0.1637  0.5755  1.0000  -1.9602   0.0000   0.3489
   7.500   1.4987   0.01848   0.01217  -0.1598  0.5480  1.0000  -2.0431   0.0000   0.3431
   8.000   1.5293   0.01947   0.01307  -0.1561  0.5213  1.0000  -2.1282   0.0000   0.3376


