XFLR5 v6.06

 Calculated polar for: foila

 1 1 Reynolds number fixed          Mach number fixed         

 xtrf =   1.000 (top)        1.000 (bottom)
 Mach =   0.000     Re =     0.350 e 6     Ncrit =   9.000

  alpha     CL        CD       CDp       Cm    Top Xtr Bot Xtr   Cpmin    Chinge    XCp    
 ------- -------- --------- --------- -------- ------- ------- -------- --------- ---------
  -8.000   0.0984   0.05268   0.04906  -0.1670  0.8261  0.0528  -2.0840   0.0000   2.0277
  -7.500   0.0033   0.02125   0.01504  -0.1852  0.8148  0.0457  -3.4186   0.0000  58.3856
  -7.000   0.0555   0.01969   0.01316  -0.1856  0.8112  0.0483  -3.1512   0.0000   3.7217
  -6.500   0.1079   0.01863   0.01187  -0.1856  0.8073  0.0517  -2.8923   0.0000   2.0333
  -6.000   0.1579   0.01788   0.01098  -0.1851  0.8022  0.0555  -2.6432   0.0000   1.4615
  -5.500   0.2123   0.01705   0.01012  -0.1853  0.7981  0.0606  -2.3791   0.0000   1.1497
  -5.000   0.2704   0.01631   0.00936  -0.1860  0.7944  0.0671  -2.1129   0.0000   0.9571
  -4.500   0.3197   0.01593   0.00900  -0.1852  0.7882  0.0754  -1.8875   0.0000   0.8439
  -4.000   0.3758   0.01546   0.00855  -0.1856  0.7836  0.0855  -1.6637   0.0000   0.7547
  -3.500   0.4361   0.01499   0.00805  -0.1866  0.7800  0.0987  -1.4365   0.0000   0.6861
  -3.000   0.4864   0.01478   0.00796  -0.1860  0.7735  0.1154  -1.2401   0.0000   0.6385
  -2.000   0.6072   0.01401   0.00729  -0.1880  0.7648  0.1813  -0.9153   0.0000   0.5625
  -1.500   0.6573   0.01383   0.00732  -0.1873  0.7569  0.2252  -0.9516   0.0000   0.5366
  -1.000   0.7186   0.01334   0.00701  -0.1886  0.7521  0.3038  -0.9954   0.0000   0.5129
  -0.500   0.7741   0.01284   0.00705  -0.1891  0.7456  0.4746  -1.0391   0.0000   0.4938
   0.000   0.8268   0.01231   0.00720  -0.1881  0.7387  0.7322  -1.0850   0.0000   0.4761
   0.500   0.8813   0.01228   0.00716  -0.1874  0.7320  0.7907  -1.1328   0.0000   0.4603
   1.000   0.9311   0.01223   0.00715  -0.1857  0.7243  0.8257  -1.1839   0.0000   0.4463
   1.500   0.9832   0.01210   0.00700  -0.1846  0.7168  0.8555  -1.2394   0.0000   0.4337
   2.000   1.0329   0.01185   0.00674  -0.1829  0.7081  0.8812  -1.2937   0.0000   0.4222
   2.500   1.0784   0.01170   0.00664  -0.1806  0.6981  0.9039  -1.3493   0.0000   0.4119
   3.000   1.1250   0.01139   0.00633  -0.1784  0.6882  0.9320  -1.4125   0.0000   0.4022
   3.500   1.1812   0.01106   0.00598  -0.1784  0.6761  1.0000  -1.4834   0.0000   0.3939
   4.000   1.2370   0.01113   0.00602  -0.1789  0.6616  1.0000  -1.5541   0.0000   0.3867
   4.500   1.2899   0.01129   0.00616  -0.1788  0.6453  1.0000  -1.6231   0.0000   0.3799
   5.000   1.3387   0.01156   0.00640  -0.1779  0.6253  1.0000  -1.6989   0.0000   0.3734
   5.500   1.3857   0.01190   0.00666  -0.1767  0.6037  1.0000  -1.7772   0.0000   0.3672
   6.000   1.4244   0.01241   0.00709  -0.1738  0.5784  1.0000  -1.8487   0.0000   0.3609
   6.500   1.4564   0.01312   0.00769  -0.1698  0.5513  1.0000  -1.9144   0.0000   0.3546
   7.000   1.4825   0.01407   0.00852  -0.1650  0.5230  1.0000  -1.9864   0.0000   0.3485
   7.500   1.5067   0.01528   0.00959  -0.1602  0.4973  1.0000  -2.0618   0.0000   0.3426
   8.000   1.5284   0.01668   0.01096  -0.1554  0.4707  1.0000  -2.1366   0.0000   0.3371


