XFLR5 v6.06

 Calculated polar for: foila

 1 1 Reynolds number fixed          Mach number fixed         

 xtrf =   1.000 (top)        1.000 (bottom)
 Mach =   0.000     Re =     0.400 e 6     Ncrit =   9.000

  alpha     CL        CD       CDp       Cm    Top Xtr Bot Xtr   Cpmin    Chinge    XCp    
 ------- -------- --------- --------- -------- ------- ------- -------- --------- ---------
  -8.000  -0.0421   0.02044   0.01442  -0.1859  0.8123  0.0412  -3.7550   0.0000  -4.3611
  -7.500   0.0101   0.01898   0.01258  -0.1864  0.8085  0.0437  -3.4769   0.0000  19.4789
  -7.000   0.0591   0.01804   0.01156  -0.1859  0.8039  0.0462  -3.1870   0.0000   3.5168
  -6.500   0.1118   0.01711   0.01053  -0.1859  0.7995  0.0493  -2.9118   0.0000   1.9724
  -6.000   0.1672   0.01623   0.00954  -0.1863  0.7961  0.0530  -2.6419   0.0000   1.4012
  -5.500   0.2211   0.01564   0.00890  -0.1864  0.7922  0.0581  -2.3743   0.0000   1.1185
  -5.000   0.2737   0.01505   0.00828  -0.1861  0.7867  0.0645  -2.1233   0.0000   0.9487
  -4.500   0.3307   0.01446   0.00770  -0.1867  0.7825  0.0728  -1.8771   0.0000   0.8284
  -4.000   0.3892   0.01410   0.00729  -0.1874  0.7791  0.0831  -1.6471   0.0000   0.7420
  -3.500   0.4410   0.01383   0.00707  -0.1869  0.7729  0.0951  -1.4340   0.0000   0.6818
  -3.000   0.4990   0.01338   0.00668  -0.1876  0.7683  0.1126  -1.2226   0.0000   0.6319
  -2.500   0.5599   0.01308   0.00642  -0.1888  0.7648  0.1408  -1.0183   0.0000   0.5913
  -2.000   0.6116   0.01284   0.00635  -0.1883  0.7576  0.1750  -0.9197   0.0000   0.5606
  -1.000   0.7288   0.01219   0.00598  -0.1899  0.7473  0.2918  -1.0037   0.0000   0.5109
  -0.500   0.7844   0.01168   0.00590  -0.1903  0.7402  0.4364  -1.0474   0.0000   0.4920
   0.000   0.8432   0.01100   0.00592  -0.1907  0.7349  0.7131  -1.0974   0.0000   0.4746
   0.500   0.8915   0.01108   0.00610  -0.1889  0.7264  0.7758  -1.1410   0.0000   0.4595
   1.000   0.9493   0.01096   0.00592  -0.1889  0.7206  0.8127  -1.1981   0.0000   0.4457
   1.500   0.9966   0.01095   0.00598  -0.1869  0.7111  0.8399  -1.2501   0.0000   0.4335
   2.000   1.0484   0.01081   0.00583  -0.1858  0.7029  0.8643  -1.3059   0.0000   0.4224
   2.500   1.0987   0.01069   0.00571  -0.1845  0.6932  0.8845  -1.3663   0.0000   0.4123
   3.000   1.1442   0.01057   0.00563  -0.1823  0.6808  0.9064  -1.4286   0.0000   0.4029
   3.500   1.1858   0.01041   0.00553  -0.1792  0.6678  0.9351  -1.4884   0.0000   0.3940
   4.000   1.2391   0.01032   0.00546  -0.1789  0.6531  1.0000  -1.5574   0.0000   0.3865
   4.500   1.2937   0.01052   0.00559  -0.1792  0.6361  1.0000  -1.6278   0.0000   0.3798
   5.000   1.3447   0.01081   0.00580  -0.1788  0.6163  1.0000  -1.7059   0.0000   0.3734
   5.500   1.3890   0.01124   0.00617  -0.1770  0.5922  1.0000  -1.7818   0.0000   0.3671
   6.000   1.4265   0.01181   0.00663  -0.1740  0.5663  1.0000  -1.8523   0.0000   0.3608
   6.500   1.4570   0.01259   0.00729  -0.1697  0.5381  1.0000  -1.9166   0.0000   0.3545
   7.000   1.4819   0.01362   0.00819  -0.1648  0.5107  1.0000  -1.9871   0.0000   0.3484
   7.500   1.5060   0.01484   0.00933  -0.1600  0.4849  1.0000  -2.0622   0.0000   0.3426
   8.000   1.5271   0.01631   0.01074  -0.1553  0.4582  1.0000  -2.1364   0.0000   0.3371


