XFLR5 v6.06

 Calculated polar for: foila

 1 1 Reynolds number fixed          Mach number fixed         

 xtrf =   1.000 (top)        1.000 (bottom)
 Mach =   0.000     Re =     0.250 e 6     Ncrit =   9.000

  alpha     CL        CD       CDp       Cm    Top Xtr Bot Xtr   Cpmin    Chinge    XCp    
 ------- -------- --------- --------- -------- ------- ------- -------- --------- ---------
  -8.000  -0.0143   0.03883   0.03440  -0.1794  0.8428  0.0521  -3.0078   0.0000  -12.8670
  -7.500  -0.0056   0.03065   0.02521  -0.1817  0.8363  0.0528  -3.1243   0.0000  -33.7015
  -7.000   0.0257   0.02669   0.02036  -0.1812  0.8293  0.0551  -3.0603   0.0000   7.5826
  -6.500   0.0792   0.02476   0.01814  -0.1821  0.8253  0.0583  -2.8088   0.0000   2.6339
  -6.000   0.1211   0.02349   0.01656  -0.1808  0.8195  0.0618  -2.6235   0.0000   1.7946
  -5.500   0.1709   0.02245   0.01532  -0.1804  0.8137  0.0667  -2.3996   0.0000   1.3393
  -5.000   0.2325   0.02130   0.01402  -0.1816  0.8101  0.0736  -2.1414   0.0000   1.0541
  -4.500   0.2728   0.02109   0.01376  -0.1794  0.8016  0.0809  -1.9476   0.0000   0.9252
  -4.000   0.3313   0.02038   0.01305  -0.1802  0.7974  0.0917  -1.7199   0.0000   0.8067
  -3.500   0.3953   0.01964   0.01229  -0.1818  0.7944  0.1060  -1.4939   0.0000   0.7192
  -3.000   0.4320   0.01996   0.01268  -0.1790  0.7847  0.1204  -1.3232   0.0000   0.6717
  -2.500   0.4986   0.01919   0.01195  -0.1809  0.7812  0.1469  -1.1121   0.0000   0.6181
  -2.000   0.5421   0.01933   0.01225  -0.1793  0.7721  0.1786  -0.9467   0.0000   0.5844
  -1.500   0.6066   0.01866   0.01174  -0.1810  0.7678  0.2298  -0.9129   0.0000   0.5505
  -1.000   0.6735   0.01792   0.01124  -0.1831  0.7639  0.3156  -0.9599   0.0000   0.5228
  -0.500   0.7212   0.01744   0.01153  -0.1824  0.7542  0.5238  -0.9986   0.0000   0.5027
   0.000   0.7798   0.01678   0.01139  -0.1814  0.7505  0.7667  -1.0485   0.0000   0.4815
   0.500   0.8164   0.01714   0.01182  -0.1773  0.7400  0.8214  -1.0839   0.0000   0.4651
   1.000   0.8759   0.01636   0.01095  -0.1765  0.7356  0.8661  -1.1408   0.0000   0.4485
   1.500   0.9067   0.01643   0.01110  -0.1713  0.7248  0.9026  -1.1807   0.0000   0.4351
   2.000   0.9633   0.01545   0.01004  -0.1701  0.7204  0.9424  -1.2402   0.0000   0.4220
   2.500   1.0210   0.01524   0.00983  -0.1709  0.7088  1.0000  -1.2998   0.0000   0.4119
   3.000   1.0819   0.01507   0.00962  -0.1722  0.6987  1.0000  -1.3726   0.0000   0.4029
   3.500   1.1556   0.01448   0.00889  -0.1755  0.6912  1.0000  -1.4568   0.0000   0.3949
   4.000   1.2107   0.01435   0.00873  -0.1757  0.6777  1.0000  -1.5269   0.0000   0.3873
   4.500   1.2653   0.01424   0.00859  -0.1756  0.6631  1.0000  -1.5973   0.0000   0.3802
   5.000   1.3197   0.01418   0.00849  -0.1756  0.6475  1.0000  -1.6765   0.0000   0.3736
   5.500   1.3648   0.01440   0.00870  -0.1738  0.6278  1.0000  -1.7527   0.0000   0.3671
   6.000   1.4087   0.01468   0.00893  -0.1719  0.6061  1.0000  -1.8287   0.0000   0.3609
   6.500   1.4465   0.01512   0.00930  -0.1688  0.5820  1.0000  -1.8996   0.0000   0.3548
   7.000   1.4809   0.01578   0.00983  -0.1653  0.5553  1.0000  -1.9800   0.0000   0.3488
   7.500   1.5085   0.01675   0.01068  -0.1608  0.5276  1.0000  -2.0590   0.0000   0.3430
   8.000   1.5327   0.01800   0.01185  -0.1562  0.5010  1.0000  -2.1367   0.0000   0.3374


