XFLR5 v6.06

 Calculated polar for: foila

 1 1 Reynolds number fixed          Mach number fixed         

 xtrf =   1.000 (top)        1.000 (bottom)
 Mach =   0.000     Re =     0.550 e 6     Ncrit =   9.000

  alpha     CL        CD       CDp       Cm    Top Xtr Bot Xtr   Cpmin    Chinge    XCp    
 ------- -------- --------- --------- -------- ------- ------- -------- --------- ---------
  -8.000  -0.0394   0.01632   0.01028  -0.1867  0.7960  0.0370  -3.8907   0.0000  -4.7059
  -7.500   0.0138   0.01562   0.00940  -0.1868  0.7923  0.0393  -3.5659   0.0000  14.3927
  -7.000   0.0658   0.01480   0.00859  -0.1867  0.7883  0.0415  -3.2543   0.0000   3.1975
  -6.500   0.1204   0.01409   0.00780  -0.1870  0.7845  0.0445  -2.9615   0.0000   1.8577
  -6.000   0.1772   0.01346   0.00707  -0.1875  0.7812  0.0481  -2.6709   0.0000   1.3431
  -5.500   0.2323   0.01298   0.00658  -0.1878  0.7774  0.0529  -2.3879   0.0000   1.0823
  -5.000   0.2869   0.01250   0.00610  -0.1878  0.7729  0.0591  -2.1232   0.0000   0.9224
  -4.500   0.3439   0.01202   0.00561  -0.1884  0.7688  0.0670  -1.8749   0.0000   0.8108
  -4.000   0.4032   0.01170   0.00523  -0.1892  0.7651  0.0764  -1.6369   0.0000   0.7291
  -3.500   0.4573   0.01141   0.00501  -0.1891  0.7600  0.0877  -1.4146   0.0000   0.6709
  -3.000   0.5142   0.01110   0.00475  -0.1895  0.7555  0.1040  -1.2041   0.0000   0.6241
  -2.500   0.5740   0.01078   0.00448  -0.1905  0.7511  0.1315  -0.9998   0.0000   0.5857
  -2.000   0.6288   0.01054   0.00436  -0.1905  0.7450  0.1635  -0.9334   0.0000   0.5554
  -1.500   0.6861   0.01030   0.00422  -0.1910  0.7398  0.2033  -0.9747   0.0000   0.5296
  -1.000   0.7461   0.01005   0.00406  -0.1920  0.7349  0.2604  -1.0179   0.0000   0.5075
  -0.500   0.7998   0.00967   0.00401  -0.1919  0.7274  0.3608  -1.0603   0.0000   0.4892
   0.000   0.8582   0.00898   0.00396  -0.1929  0.7215  0.6041  -1.1098   0.0000   0.4731
   0.500   0.9101   0.00889   0.00418  -0.1919  0.7140  0.7410  -1.1560   0.0000   0.4584
   1.000   0.9657   0.00888   0.00416  -0.1917  0.7071  0.7811  -1.2121   0.0000   0.4451
   1.500   1.0179   0.00892   0.00423  -0.1908  0.6978  0.8077  -1.2676   0.0000   0.4333
   2.000   1.0711   0.00894   0.00424  -0.1901  0.6888  0.8313  -1.3243   0.0000   0.4226
   2.500   1.1222   0.00894   0.00424  -0.1891  0.6770  0.8491  -1.3869   0.0000   0.4128
   3.000   1.1715   0.00899   0.00432  -0.1878  0.6640  0.8651  -1.4522   0.0000   0.4038
   3.500   1.2204   0.00908   0.00441  -0.1864  0.6495  0.8824  -1.5177   0.0000   0.3955
   4.000   1.2660   0.00919   0.00453  -0.1845  0.6332  0.9011  -1.5813   0.0000   0.3877
   4.500   1.3083   0.00936   0.00471  -0.1819  0.6131  0.9215  -1.6425   0.0000   0.3802
   5.500   1.3929   0.01010   0.00534  -0.1774  0.5628  1.0000  -1.7885   0.0000   0.3670
   6.000   1.4272   0.01079   0.00591  -0.1738  0.5341  1.0000  -1.8560   0.0000   0.3606
   6.500   1.4557   0.01170   0.00668  -0.1694  0.5064  1.0000  -1.9185   0.0000   0.3543
   7.000   1.4816   0.01277   0.00765  -0.1647  0.4813  1.0000  -1.9891   0.0000   0.3483
   7.500   1.5053   0.01404   0.00884  -0.1600  0.4541  1.0000  -2.0640   0.0000   0.3426
   8.000   1.5272   0.01559   0.01031  -0.1555  0.4286  1.0000  -2.1391   0.0000   0.3372


