XFLR5 v6.06

 Calculated polar for: foila

 1 1 Reynolds number fixed          Mach number fixed         

 xtrf =   1.000 (top)        1.000 (bottom)
 Mach =   0.000     Re =     0.450 e 6     Ncrit =   9.000

  alpha     CL        CD       CDp       Cm    Top Xtr Bot Xtr   Cpmin    Chinge    XCp    
 ------- -------- --------- --------- -------- ------- ------- -------- --------- ---------
  -8.000  -0.0410   0.01859   0.01238  -0.1863  0.8063  0.0397  -3.8308   0.0000  -4.5015
  -7.500   0.0096   0.01768   0.01144  -0.1861  0.8015  0.0418  -3.5112   0.0000  20.4976
  -7.000   0.0628   0.01660   0.01020  -0.1863  0.7978  0.0443  -3.2123   0.0000   3.3330
  -6.500   0.1189   0.01583   0.00925  -0.1869  0.7945  0.0476  -2.9283   0.0000   1.8782
  -6.000   0.1707   0.01523   0.00858  -0.1866  0.7903  0.0512  -2.6590   0.0000   1.3792
  -5.500   0.2244   0.01454   0.00791  -0.1866  0.7858  0.0561  -2.3856   0.0000   1.1068
  -5.000   0.2814   0.01391   0.00727  -0.1872  0.7818  0.0624  -2.1176   0.0000   0.9334
  -4.500   0.3379   0.01351   0.00683  -0.1876  0.7779  0.0709  -1.8736   0.0000   0.8188
  -4.000   0.3916   0.01315   0.00653  -0.1875  0.7728  0.0802  -1.6495   0.0000   0.7392
  -3.500   0.4494   0.01274   0.00613  -0.1881  0.7681  0.0924  -1.4222   0.0000   0.6763
  -3.000   0.5097   0.01243   0.00580  -0.1892  0.7646  0.1102  -1.2068   0.0000   0.6268
  -2.500   0.5622   0.01221   0.00573  -0.1888  0.7587  0.1367  -1.0169   0.0000   0.5899
  -2.000   0.6206   0.01182   0.00542  -0.1895  0.7532  0.1716  -0.9266   0.0000   0.5579
  -1.500   0.6798   0.01156   0.00525  -0.1904  0.7484  0.2152  -0.9689   0.0000   0.5314
  -1.000   0.7338   0.01131   0.00524  -0.1903  0.7420  0.2779  -1.0081   0.0000   0.5097
  -0.500   0.7945   0.01076   0.00499  -0.1916  0.7363  0.4092  -1.0553   0.0000   0.4905
   0.000   0.8462   0.01018   0.00522  -0.1910  0.7289  0.6856  -1.1004   0.0000   0.4742
   0.500   0.9020   0.01011   0.00520  -0.1907  0.7225  0.7639  -1.1491   0.0000   0.4589
   1.000   0.9540   0.01015   0.00527  -0.1897  0.7147  0.8014  -1.2023   0.0000   0.4455
   1.500   1.0084   0.01005   0.00515  -0.1891  0.7072  0.8273  -1.2595   0.0000   0.4334
   2.000   1.0576   0.01005   0.00519  -0.1876  0.6973  0.8514  -1.3133   0.0000   0.4225
   2.500   1.1093   0.00999   0.00512  -0.1866  0.6875  0.8702  -1.3754   0.0000   0.4126
   3.000   1.1586   0.00990   0.00502  -0.1851  0.6755  0.8891  -1.4408   0.0000   0.4034
   3.500   1.2036   0.00986   0.00502  -0.1829  0.6620  0.9105  -1.5033   0.0000   0.3947
   4.000   1.2455   0.00982   0.00502  -0.1800  0.6470  0.9389  -1.5638   0.0000   0.3866
   4.500   1.2972   0.00993   0.00514  -0.1796  0.6283  1.0000  -1.6320   0.0000   0.3797
   5.000   1.3469   0.01028   0.00543  -0.1790  0.6067  1.0000  -1.7091   0.0000   0.3733
   5.500   1.3914   0.01075   0.00580  -0.1773  0.5818  1.0000  -1.7852   0.0000   0.3671
   6.000   1.4272   0.01139   0.00631  -0.1740  0.5553  1.0000  -1.8542   0.0000   0.3607
   6.500   1.4561   0.01223   0.00702  -0.1695  0.5261  1.0000  -1.9171   0.0000   0.3544
   7.000   1.4815   0.01328   0.00796  -0.1647  0.4998  1.0000  -1.9877   0.0000   0.3483
   7.500   1.5062   0.01448   0.00911  -0.1601  0.4739  1.0000  -2.0635   0.0000   0.3426
   8.000   1.5259   0.01606   0.01058  -0.1551  0.4472  1.0000  -2.1361   0.0000   0.3371


