XFLR5 v6.06

 Calculated polar for: foila

 1 1 Reynolds number fixed          Mach number fixed         

 xtrf =   1.000 (top)        1.000 (bottom)
 Mach =   0.000     Re =     0.500 e 6     Ncrit =   9.000

  alpha     CL        CD       CDp       Cm    Top Xtr Bot Xtr   Cpmin    Chinge    XCp    
 ------- -------- --------- --------- -------- ------- ------- -------- --------- ---------
  -8.000  -0.0412   0.01744   0.01141  -0.1863  0.8004  0.0382  -3.8580   0.0000  -4.4789
  -7.500   0.0124   0.01640   0.01017  -0.1866  0.7966  0.0404  -3.5417   0.0000  15.9300
  -7.000   0.0669   0.01569   0.00928  -0.1869  0.7932  0.0430  -3.2332   0.0000   3.1522
  -6.500   0.1186   0.01495   0.00856  -0.1867  0.7889  0.0459  -2.9468   0.0000   1.8801
  -6.000   0.1729   0.01424   0.00781  -0.1869  0.7850  0.0494  -2.6661   0.0000   1.3660
  -5.500   0.2300   0.01366   0.00714  -0.1875  0.7815  0.0545  -2.3824   0.0000   1.0892
  -5.000   0.2856   0.01316   0.00661  -0.1878  0.7775  0.0608  -2.1194   0.0000   0.9252
  -4.500   0.3399   0.01272   0.00621  -0.1878  0.7726  0.0687  -1.8764   0.0000   0.8158
  -4.000   0.3973   0.01229   0.00578  -0.1883  0.7685  0.0781  -1.6440   0.0000   0.7341
  -3.500   0.4571   0.01200   0.00545  -0.1893  0.7645  0.0902  -1.4114   0.0000   0.6716
  -3.000   0.5105   0.01171   0.00527  -0.1891  0.7595  0.1065  -1.2083   0.0000   0.6260
  -2.500   0.5679   0.01140   0.00504  -0.1896  0.7544  0.1338  -1.0088   0.0000   0.5877
  -2.000   0.6287   0.01111   0.00477  -0.1907  0.7496  0.1686  -0.9326   0.0000   0.5559
  -1.500   0.6818   0.01089   0.00472  -0.1904  0.7434  0.2082  -0.9712   0.0000   0.5306
  -1.000   0.7404   0.01057   0.00455  -0.1912  0.7382  0.2683  -1.0134   0.0000   0.5085
  -0.500   0.7974   0.01019   0.00446  -0.1918  0.7317  0.3799  -1.0580   0.0000   0.4897
   0.000   0.8525   0.00949   0.00453  -0.1920  0.7248  0.6475  -1.1054   0.0000   0.4736
   0.500   0.9077   0.00943   0.00461  -0.1916  0.7186  0.7526  -1.1537   0.0000   0.4586
   1.000   0.9604   0.00945   0.00466  -0.1908  0.7104  0.7912  -1.2077   0.0000   0.4453
   1.500   1.0142   0.00944   0.00464  -0.1902  0.7025  0.8172  -1.2643   0.0000   0.4334
   2.000   1.0658   0.00941   0.00463  -0.1891  0.6931  0.8406  -1.3199   0.0000   0.4225
   2.500   1.1159   0.00941   0.00465  -0.1879  0.6815  0.8589  -1.3813   0.0000   0.4127
   3.000   1.1649   0.00941   0.00468  -0.1865  0.6690  0.8757  -1.4464   0.0000   0.4036
   4.000   1.2570   0.00949   0.00480  -0.1825  0.6395  0.9166  -1.5735   0.0000   0.3872
   4.500   1.2981   0.00957   0.00488  -0.1796  0.6205  0.9450  -1.6338   0.0000   0.3796
   5.000   1.3489   0.00986   0.00513  -0.1792  0.5980  1.0000  -1.7119   0.0000   0.3733
   5.500   1.3921   0.01040   0.00553  -0.1773  0.5722  1.0000  -1.7870   0.0000   0.3670
   6.000   1.4270   0.01106   0.00608  -0.1739  0.5443  1.0000  -1.8551   0.0000   0.3607
   6.500   1.4556   0.01194   0.00683  -0.1694  0.5154  1.0000  -1.9176   0.0000   0.3544
   7.000   1.4824   0.01297   0.00777  -0.1648  0.4902  1.0000  -1.9893   0.0000   0.3483
   7.500   1.5054   0.01424   0.00896  -0.1600  0.4638  1.0000  -2.0635   0.0000   0.3426
   8.000   1.5249   0.01587   0.01048  -0.1551  0.4374  1.0000  -2.1358   0.0000   0.3371


