XFLR5 v6.06

 Calculated polar for: foila

 1 1 Reynolds number fixed          Mach number fixed         

 xtrf =   1.000 (top)        1.000 (bottom)
 Mach =   0.000     Re =     0.300 e 6     Ncrit =   9.000

  alpha     CL        CD       CDp       Cm    Top Xtr Bot Xtr   Cpmin    Chinge    XCp    
 ------- -------- --------- --------- -------- ------- ------- -------- --------- ---------
  -8.000  -0.0462   0.02678   0.02115  -0.1840  0.8289  0.0462  -3.5499   0.0000  -3.9117
  -7.500   0.0012   0.02423   0.01815  -0.1847  0.8247  0.0486  -3.3252   0.0000  160.5202
  -7.000   0.0448   0.02224   0.01559  -0.1842  0.8196  0.0513  -3.1309   0.0000   4.5281
  -6.500   0.0946   0.02109   0.01436  -0.1839  0.8145  0.0545  -2.8640   0.0000   2.2662
  -6.000   0.1496   0.01987   0.01295  -0.1844  0.8109  0.0584  -2.6159   0.0000   1.5246
  -5.500   0.2004   0.01913   0.01210  -0.1840  0.8064  0.0635  -2.3738   0.0000   1.1969
  -5.000   0.2512   0.01844   0.01132  -0.1835  0.8001  0.0700  -2.1350   0.0000   1.0012
  -4.500   0.3094   0.01767   0.01056  -0.1842  0.7961  0.0783  -1.8924   0.0000   0.8606
  -4.000   0.3601   0.01744   0.01029  -0.1836  0.7905  0.0888  -1.6839   0.0000   0.7715
  -3.500   0.4135   0.01706   0.00997  -0.1835  0.7847  0.1015  -1.4722   0.0000   0.7026
  -3.000   0.4746   0.01652   0.00945  -0.1847  0.7809  0.1198  -1.2548   0.0000   0.6455
  -2.500   0.5242   0.01644   0.00950  -0.1840  0.7740  0.1443  -1.0734   0.0000   0.6056
  -2.000   0.5831   0.01601   0.00915  -0.1847  0.7685  0.1821  -0.8977   0.0000   0.5699
  -1.500   0.6482   0.01544   0.00870  -0.1865  0.7649  0.2341  -0.9435   0.0000   0.5396
  -1.000   0.6961   0.01532   0.00888  -0.1856  0.7561  0.3079  -0.9782   0.0000   0.5173
  -0.500   0.7604   0.01433   0.00854  -0.1876  0.7515  0.5229  -1.0280   0.0000   0.4963
   0.500   0.8619   0.01399   0.00874  -0.1843  0.7372  0.8060  -1.1179   0.0000   0.4616
   1.000   0.9073   0.01405   0.00884  -0.1818  0.7289  0.8436  -1.1652   0.0000   0.4473
   1.500   0.9594   0.01366   0.00842  -0.1803  0.7223  0.8743  -1.2209   0.0000   0.4340
   2.000   1.0016   0.01347   0.00827  -0.1772  0.7126  0.9041  -1.2696   0.0000   0.4221
   2.500   1.0557   0.01283   0.00756  -0.1761  0.7057  0.9333  -1.3305   0.0000   0.4113
   3.000   1.1079   0.01261   0.00740  -0.1755  0.6942  1.0000  -1.3969   0.0000   0.4021
   3.500   1.1666   0.01252   0.00728  -0.1765  0.6819  1.0000  -1.4691   0.0000   0.3942
   4.000   1.2238   0.01247   0.00718  -0.1771  0.6683  1.0000  -1.5409   0.0000   0.3868
   4.500   1.2783   0.01250   0.00718  -0.1772  0.6531  1.0000  -1.6112   0.0000   0.3800
   5.000   1.3306   0.01261   0.00723  -0.1769  0.6357  1.0000  -1.6894   0.0000   0.3734
   5.500   1.3797   0.01285   0.00740  -0.1759  0.6157  1.0000  -1.7696   0.0000   0.3672
   6.000   1.4197   0.01329   0.00779  -0.1733  0.5917  1.0000  -1.8421   0.0000   0.3610
   6.500   1.4538   0.01389   0.00828  -0.1696  0.5657  1.0000  -1.9097   0.0000   0.3547
   7.000   1.4822   0.01475   0.00903  -0.1651  0.5378  1.0000  -1.9842   0.0000   0.3486
   7.500   1.5079   0.01585   0.00999  -0.1605  0.5109  1.0000  -2.0612   0.0000   0.3428
   8.000   1.5306   0.01721   0.01129  -0.1557  0.4849  1.0000  -2.1372   0.0000   0.3372


